Circuit: * C:\Users\Alan\Leo\UBA\Circuitos II\Proyecto\circuito_completo.asc

Warning: Multiple definitions of model "2sc2412k" Type: BJT
Warning: Multiple definitions of model "2sa1037ak" Type: BJT
Warning: Multiple definitions of model "bc817-16" Type: BJT
Warning: Multiple definitions of model "bc848b" Type: BJT
Warning: Multiple definitions of model "bc807-16" Type: BJT
Warning: Multiple definitions of model "bcx17" Type: BJT
Warning: Multiple definitions of model "bc858b" Type: BJT
Warning: Multiple definitions of model "2sd1898" Type: BJT
Warning: Multiple definitions of model "d45h11" Type: BJT
Warning: Multiple definitions of model "bc856b" Type: BJT
Warning: Multiple definitions of model "bc556b" Type: BJT
Warning: Multiple definitions of model "bc846b" Type: BJT
Warning: Multiple definitions of model "bc546b" Type: BJT
Warning: Multiple definitions of model "bc327-40" Type: BJT
Warning: Multiple definitions of model "bc327-25" Type: BJT
Warning: Multiple definitions of model "bc807-40" Type: BJT
Warning: Multiple definitions of model "bc807-25" Type: BJT
Warning: Multiple definitions of model "bc857c" Type: BJT
Warning: Multiple definitions of model "bc857b" Type: BJT
Warning: Multiple definitions of model "bc857a" Type: BJT
Warning: Multiple definitions of model "bc557c" Type: BJT
Warning: Multiple definitions of model "bc557b" Type: BJT
Warning: Multiple definitions of model "bc337-40" Type: BJT
Warning: Multiple definitions of model "bc337-25" Type: BJT
Warning: Multiple definitions of model "bc817-40" Type: BJT
Warning: Multiple definitions of model "bc817-25" Type: BJT
Warning: Multiple definitions of model "bc847c" Type: BJT
Warning: Multiple definitions of model "bc847b" Type: BJT
Warning: Multiple definitions of model "bc847a" Type: BJT
Warning: Multiple definitions of model "bc547c" Type: BJT
Warning: Multiple definitions of model "bc547b" Type: BJT
Warning: Multiple definitions of model "2n3019" Type: BJT
Warning: Multiple definitions of model "bcw68g" Type: BJT
Warning: Multiple definitions of model "bcw68f" Type: BJT
Warning: Multiple definitions of model "bcw60d" Type: BJT
Warning: Multiple definitions of model "bcw60c" Type: BJT
Warning: Multiple definitions of model "bcw60b" Type: BJT
Warning: Multiple definitions of model "bcw60a" Type: BJT
Warning: Multiple definitions of model "2n3055" Type: BJT
Warning: Multiple definitions of model "2n5771" Type: BJT
Warning: Multiple definitions of model "2n5769" Type: BJT
Warning: Multiple definitions of model "2n2369" Type: BJT
Warning: Multiple definitions of model "2n5401" Type: BJT
Warning: Multiple definitions of model "2n5550" Type: BJT
Warning: Multiple definitions of model "2n4403" Type: BJT
Warning: Multiple definitions of model "2n4401" Type: BJT
Warning: Multiple definitions of model "2n2905a" Type: BJT
Warning: Multiple definitions of model "2n2219a" Type: BJT
Warning: Multiple definitions of model "2n5087" Type: BJT
Warning: Multiple definitions of model "2n5210" Type: BJT
Warning: Multiple definitions of model "2n5089" Type: BJT
Warning: Multiple definitions of model "2n3391a" Type: BJT
Warning: Multiple definitions of model "2n4126" Type: BJT
Warning: Multiple definitions of model "2n4124" Type: BJT
Warning: Multiple definitions of model "ztx1048a" Type: BJT
Warning: Multiple definitions of model "fzt849" Type: BJT
Warning: Multiple definitions of model "2n3906" Type: BJT
Warning: Multiple definitions of model "2n3904" Type: BJT
Warning: Multiple definitions of model "2n2907" Type: BJT
Warning: Multiple definitions of model "2n2222" Type: BJT
Direct Newton iteration failed to find .op point.  (Use ".option noopiter" to skip.)
Starting Gmin stepping
Increasing initial diagonal Gmin to 100
Gmin = 100
Gmin = 10.7374
vernier = 0.5
vernier = 0.25
vernier = 0.125
Gmin = 5.33097
vernier = 0.0625
vernier = 0.03125
vernier = 0.015625
vernier = 0.0078125
Gmin = 5.38141
vernier = 0.00390625
vernier = 0.00195313
vernier = 0.000976563
vernier = 0.000488281
Gmin = 5.37812
Gmin = 0
Gmin stepping failed

Starting source stepping with srcstepmethod=0
Source Step = 3.0303%
Source Step = 33.3333%
Source Step = 63.6364%
Source Step = 93.9394%
Source stepping succeeded in finding the operating point.

N-Period=1
Fourier components of V(out)
DC component:-0.00416696

Harmonic	Frequency	 Fourier 	Normalized	 Phase  	Normalized
 Number 	  [Hz]   	Component	 Component	[degree]	Phase [deg]
    1   	1.000e+03	2.371e+01	1.000e+00	   27.82°	    0.00°
    2   	2.000e+03	1.058e-03	4.464e-05	  -58.75°	  -86.57°
    3   	3.000e+03	1.684e-03	7.101e-05	   76.89°	   49.07°
    4   	4.000e+03	1.502e-03	6.335e-05	 -150.47°	 -178.29°
    5   	5.000e+03	1.427e-03	6.018e-05	   -6.51°	  -34.33°
    6   	6.000e+03	1.212e-03	5.114e-05	   93.50°	   65.69°
    7   	7.000e+03	7.900e-04	3.332e-05	 -162.96°	 -190.77°
    8   	8.000e+03	1.385e-03	5.841e-05	  -21.02°	  -48.83°
    9   	9.000e+03	1.546e-03	6.519e-05	  118.96°	   91.15°
Total Harmonic Distortion: 0.016142%(0.000000%)



Date: Fri Jul 05 19:41:03 2019
Total elapsed time: 5.455 seconds.

tnom = 27
temp = 27
method = modified trap
totiter = 198549
traniter = 196554
tranpoints = 91564
accept = 86547
rejected = 5017
matrix size = 136
fillins = 267
solver = Normal
Thread vector: 12.1/8.9[2] 4.1/3.2[2] 4.3/3.9[2] 0.8/1.5[1]  2592/500
Matrix Compiler1: 25.78 KB object code size  4.6/2.3/[1.2]
Matrix Compiler2: 16.76 KB object code size  1.8/3.0/[0.8]

