Circuit: * C:\Users\Alan\Leo\UBA\Circuitos II\Proyecto\Spice Completo\circuito_completo.asc

Warning: Multiple definitions of model "2sc2412k" Type: BJT
Warning: Multiple definitions of model "2sa1037ak" Type: BJT
Warning: Multiple definitions of model "bc817-16" Type: BJT
Warning: Multiple definitions of model "bc848b" Type: BJT
Warning: Multiple definitions of model "bc807-16" Type: BJT
Warning: Multiple definitions of model "bcx17" Type: BJT
Warning: Multiple definitions of model "bc858b" Type: BJT
Warning: Multiple definitions of model "2sd1898" Type: BJT
Warning: Multiple definitions of model "d45h11" Type: BJT
Warning: Multiple definitions of model "bc856b" Type: BJT
Warning: Multiple definitions of model "bc556b" Type: BJT
Warning: Multiple definitions of model "bc846b" Type: BJT
Warning: Multiple definitions of model "bc546b" Type: BJT
Warning: Multiple definitions of model "bc327-40" Type: BJT
Warning: Multiple definitions of model "bc327-25" Type: BJT
Warning: Multiple definitions of model "bc807-40" Type: BJT
Warning: Multiple definitions of model "bc807-25" Type: BJT
Warning: Multiple definitions of model "bc857c" Type: BJT
Warning: Multiple definitions of model "bc857b" Type: BJT
Warning: Multiple definitions of model "bc857a" Type: BJT
Warning: Multiple definitions of model "bc557c" Type: BJT
Warning: Multiple definitions of model "bc557b" Type: BJT
Warning: Multiple definitions of model "bc337-40" Type: BJT
Warning: Multiple definitions of model "bc337-25" Type: BJT
Warning: Multiple definitions of model "bc817-40" Type: BJT
Warning: Multiple definitions of model "bc817-25" Type: BJT
Warning: Multiple definitions of model "bc847c" Type: BJT
Warning: Multiple definitions of model "bc847b" Type: BJT
Warning: Multiple definitions of model "bc847a" Type: BJT
Warning: Multiple definitions of model "bc547c" Type: BJT
Warning: Multiple definitions of model "bc547b" Type: BJT
Warning: Multiple definitions of model "2n3019" Type: BJT
Warning: Multiple definitions of model "bcw68g" Type: BJT
Warning: Multiple definitions of model "bcw68f" Type: BJT
Warning: Multiple definitions of model "bcw60d" Type: BJT
Warning: Multiple definitions of model "bcw60c" Type: BJT
Warning: Multiple definitions of model "bcw60b" Type: BJT
Warning: Multiple definitions of model "bcw60a" Type: BJT
Warning: Multiple definitions of model "2n3055" Type: BJT
Warning: Multiple definitions of model "2n5771" Type: BJT
Warning: Multiple definitions of model "2n5769" Type: BJT
Warning: Multiple definitions of model "2n2369" Type: BJT
Warning: Multiple definitions of model "2n5401" Type: BJT
Warning: Multiple definitions of model "2n5550" Type: BJT
Warning: Multiple definitions of model "2n4403" Type: BJT
Warning: Multiple definitions of model "2n4401" Type: BJT
Warning: Multiple definitions of model "2n2905a" Type: BJT
Warning: Multiple definitions of model "2n2219a" Type: BJT
Warning: Multiple definitions of model "2n5087" Type: BJT
Warning: Multiple definitions of model "2n5210" Type: BJT
Warning: Multiple definitions of model "2n5089" Type: BJT
Warning: Multiple definitions of model "2n3391a" Type: BJT
Warning: Multiple definitions of model "2n4126" Type: BJT
Warning: Multiple definitions of model "2n4124" Type: BJT
Warning: Multiple definitions of model "ztx1048a" Type: BJT
Warning: Multiple definitions of model "fzt849" Type: BJT
Warning: Multiple definitions of model "2n3906" Type: BJT
Warning: Multiple definitions of model "2n3904" Type: BJT
Warning: Multiple definitions of model "2n2907" Type: BJT
Warning: Multiple definitions of model "2n2222" Type: BJT
Direct Newton iteration failed to find .op point.  (Use ".option noopiter" to skip.)
Starting Gmin stepping
Increasing initial diagonal Gmin to 100
Gmin = 100
Gmin = 10.7374
vernier = 0.5
vernier = 0.25
vernier = 0.125
Gmin = 5.33097
vernier = 0.0625
vernier = 0.03125
vernier = 0.015625
vernier = 0.0078125
vernier = 0.00390625
Gmin = 5.49219
vernier = 0.00195313
vernier = 0.000976563
vernier = 0.000488281
Gmin = 0
Gmin stepping failed

Starting source stepping with srcstepmethod=0
Source Step = 3.0303%
Source Step = 15.9091%
Source Step = 17.803%
Source Step = 19.697%
Source Step = 21.5909%
Source Step = 23.4848%
vernier = 0.09375
Source Step = 25.6629%
Source Step = 28.5038%
Source Step = 31.3447%
Source Step = 34.1856%
Source Step = 37.0265%
vernier = 0.140625
Source Step = 40.1515%
Source Step = 44.4129%
Source Step = 48.6742%
Source Step = 52.9356%
Source Step = 57.197%
vernier = 0.210938
Source Step = 61.6714%
Source Step = 68.0634%
Source Step = 74.4555%
Source Step = 80.8475%
Source Step = 87.2396%
Source Step = 93.6316%
vernier = 0.316406
Source stepping succeeded in finding the operating point.

N-Period=1
Fourier components of V(out)
DC component:-0.00367421

Harmonic	Frequency	 Fourier 	Normalized	 Phase  	Normalized
 Number 	  [Hz]   	Component	 Component	[degree]	Phase [deg]
    1   	1.000e+03	2.369e+01	1.000e+00	   27.83°	    0.00°
    2   	2.000e+03	5.026e-03	2.121e-04	  148.97°	  121.15°
    3   	3.000e+03	1.515e-02	6.392e-04	   89.59°	   61.77°
    4   	4.000e+03	4.857e-03	2.050e-04	   11.21°	  -16.61°
    5   	5.000e+03	1.396e-02	5.893e-04	  -34.46°	  -62.29°
    6   	6.000e+03	5.368e-03	2.266e-04	 -116.43°	 -144.26°
    7   	7.000e+03	1.288e-02	5.438e-04	 -154.41°	 -182.24°
    8   	8.000e+03	5.837e-03	2.464e-04	  119.71°	   91.88°
    9   	9.000e+03	1.149e-02	4.849e-04	   80.07°	   52.24°
Total Harmonic Distortion: 0.121891%(0.162147%)



Date: Sat Aug 03 01:02:18 2019
Total elapsed time: 4.757 seconds.

tnom = 27
temp = 27
method = modified trap
totiter = 197930
traniter = 195096
tranpoints = 90858
accept = 86105
rejected = 4753
matrix size = 135
fillins = 281
solver = Normal
Thread vector: 12.3/9.3[2] 5.0/3.3[2] 5.2/4.1[2] 0.8/2.0[1]  2592/500
Matrix Compiler1: 26.48 KB object code size  4.6/3.2/[1.3]
Matrix Compiler2: 17.05 KB object code size  2.0/2.9/[1.1]

