Circuit: * C:\Users\bakaneko\Facultad\Materias\Circuitos Electrónicos II\TPS\REPO-TPS\REPO-DSE\LTSPICE\amplifier\amplifier_Zo.asc

Number of points per decade reduced from 10000 to 5248.
Direct Newton iteration failed to find .op point.  (Use ".option noopiter" to skip.)
Starting Gmin stepping
Gmin = 10
Gmin = 1.07374
Gmin = 0.115292
Gmin = 0.0123794
Gmin = 0.00132923
Gmin = 0.000142725
Gmin = 1.5325e-005
Gmin = 1.6455e-006
vernier = 0.5
vernier = 0.25
vernier = 0.125
vernier = 0.0625
vernier = 0.03125
vernier = 0.015625
vernier = 0.0078125
vernier = 0.00390625
vernier = 0.00195313
vernier = 0.000976563
Gmin = 2.05688e-006
vernier = 0.000488281
Gmin = 0
Gmin stepping failed

Starting source stepping with srcstepmethod=0
Source Step = 3.0303%
Source Step = 33.3333%
Source Step = 63.6364%
Source Step = 93.9394%
Source stepping succeeded in finding the operating point.


bw=4.47164e+007 FROM 6.76549e+006 TO 5.14819e+007
max_pout: MAX(mag(v(out)*i(rl)/2))=(7.03429dB,0°) FROM 0.01 TO 1e+010


Date: Mon Dec 16 01:28:56 2019
Total elapsed time: 7.985 seconds.

tnom = 27
temp = 27
method = trap
totiter = 2152
traniter = 0
tranpoints = 0
accept = 0
rejected = 0
matrix size = 101
fillins = 180
solver = Alternate
Matrix Compiler1:    1017 opcodes
Matrix Compiler2: off  [5.5]/10.4/8.3

