Circuit: * C:\Users\bakaneko\Facultad\Materias\Circuitos Electrónicos II\TPS\REPO-TPS\REPO-DSE\LTSPICE\amplifier\amplifier_eff_vs_power.asc

Direct Newton iteration failed to find .op point.  (Use ".option noopiter" to skip.)
Starting Gmin stepping
Gmin = 10
Gmin = 1.07374
Gmin = 0.115292
Gmin = 0.0123794
Gmin = 0.00132923
Gmin = 0.000142725
Gmin = 1.5325e-005
Gmin = 1.6455e-006
vernier = 0.5
vernier = 0.25
vernier = 0.125
vernier = 0.0625
vernier = 0.03125
vernier = 0.015625
vernier = 0.0078125
Gmin = 2.04488e-006
vernier = 0.0104167
vernier = 0.0138889
Gmin = 1.99152e-006
vernier = 0.0185185
Gmin = 1.91041e-006
vernier = 0.0246913
vernier = 0.0329218
Gmin = 1.78177e-006
vernier = 0.0438957
vernier = 0.0219478
vernier = 0.0109739
vernier = 0.00548696
vernier = 0.00274348
Gmin = 1.69634e-006
vernier = 0.00137174
vernier = 0.00068587
vernier = 0.000514403
Gmin = 0
Gmin stepping failed

Starting source stepping with srcstepmethod=0
Source Step = 3.0303%
Source Step = 33.3333%
Source Step = 63.6364%
Source Step = 93.9394%
Source stepping succeeded in finding the operating point.

.step vpin=0.025
.step vpin=0.05
.step vpin=0.075
.step vpin=0.1
.step vpin=0.125
.step vpin=0.15
.step vpin=0.175
.step vpin=0.2
.step vpin=0.225
.step vpin=0.25
.step vpin=0.275
.step vpin=0.3
.step vpin=0.325
.step vpin=0.35
.step vpin=0.375
.step vpin=0.4
.step vpin=0.425
.step vpin=0.45
.step vpin=0.475
.step vpin=0.5
.step vpin=0.525
.step vpin=0.55
.step vpin=0.575
.step vpin=0.6
.step vpin=0.625
.step vpin=0.65
.step vpin=0.675
.step vpin=0.7
.step vpin=0.725
.step vpin=0.75
.step vpin=0.775
.step vpin=0.8
.step vpin=0.825
.step vpin=0.85
.step vpin=0.875
.step vpin=0.9
.step vpin=0.925
.step vpin=0.95
.step vpin=0.975
.step vpin=1
.step vpin=1.025
.step vpin=1.05


Measurement: vrms
  step	RMS(v(out))	FROM	TO
     1	0.427008	0.001	0.01
     2	0.854011	0.001	0.01
     3	1.28101	0.001	0.01
     4	1.70802	0.001	0.01
     5	2.13502	0.001	0.01
     6	2.56202	0.001	0.01
     7	2.98903	0.001	0.01
     8	3.41603	0.001	0.01
     9	3.84303	0.001	0.01
    10	4.27003	0.001	0.01
    11	4.69704	0.001	0.01
    12	5.12404	0.001	0.01
    13	5.55104	0.001	0.01
    14	5.97804	0.001	0.01
    15	6.40504	0.001	0.01
    16	6.83205	0.001	0.01
    17	7.25905	0.001	0.01
    18	7.68605	0.001	0.01
    19	8.11305	0.001	0.01
    20	8.54005	0.001	0.01
    21	8.96704	0.001	0.01
    22	9.39403	0.001	0.01
    23	9.82102	0.001	0.01
    24	10.248	0.001	0.01
    25	10.675	0.001	0.01
    26	11.102	0.001	0.01
    27	11.529	0.001	0.01
    28	11.956	0.001	0.01
    29	12.383	0.001	0.01
    30	12.81	0.001	0.01
    31	13.237	0.001	0.01
    32	13.664	0.001	0.01
    33	14.091	0.001	0.01
    34	14.518	0.001	0.01
    35	14.9449	0.001	0.01
    36	15.3719	0.001	0.01
    37	15.7989	0.001	0.01
    38	16.2259	0.001	0.01
    39	16.6529	0.001	0.01
    40	17.0799	0.001	0.00999998
    41	17.5069	0.001	0.01
    42	17.9339	0.001	0.01

Measurement: pout
  step	AVG(v(out)*i(rl))	FROM	TO
     1	0.0227919	0.001	0.01
     2	0.0911668	0.001	0.01
     3	0.205124	0.001	0.01
     4	0.364665	0.001	0.01
     5	0.569789	0.001	0.01
     6	0.820495	0.001	0.01
     7	1.11678	0.001	0.01
     8	1.45866	0.001	0.01
     9	1.84611	0.001	0.01
    10	2.27915	0.001	0.01
    11	2.75777	0.001	0.01
    12	3.28197	0.001	0.01
    13	3.85176	0.001	0.01
    14	4.46712	0.001	0.01
    15	5.12807	0.001	0.01
    16	5.83461	0.001	0.01
    17	6.58672	0.001	0.01
    18	7.38442	0.001	0.01
    19	8.2277	0.001	0.01
    20	9.11656	0.001	0.01
    21	10.051	0.001	0.01
    22	11.031	0.001	0.01
    23	12.0566	0.001	0.01
    24	13.1277	0.001	0.01
    25	14.2445	0.001	0.01
    26	15.4068	0.001	0.01
    27	16.6147	0.001	0.01
    28	17.8682	0.001	0.01
    29	19.1673	0.001	0.01
    30	20.512	0.001	0.01
    31	21.9022	0.001	0.01
    32	23.338	0.001	0.01
    33	24.8194	0.001	0.01
    34	26.3464	0.001	0.01
    35	27.9189	0.001	0.01
    36	29.5371	0.001	0.01
    37	31.2008	0.001	0.01
    38	32.9101	0.001	0.01
    39	34.665	0.001	0.01
    40	36.4655	0.001	0.00999998
    41	38.3114	0.001	0.01
    42	40.203	0.001	0.01

Measurement: vout_max
  step	MAX(v(out))	FROM	TO
     1	0.599876	0	0.01
     2	1.20018	0	0.01
     3	1.80048	0	0.01
     4	2.40079	0	0.01
     5	3.00109	0	0.01
     6	3.60139	0	0.01
     7	4.20169	0	0.01
     8	4.80199	0	0.01
     9	5.40229	0	0.01
    10	6.00259	0	0.01
    11	6.60289	0	0.01
    12	7.20319	0	0.01
    13	7.80349	0	0.01
    14	8.40378	0	0.01
    15	9.00408	0	0.01
    16	9.60438	0	0.01
    17	10.2047	0	0.01
    18	10.805	0	0.01
    19	11.4053	0	0.01
    20	12.0055	0	0.01
    21	12.6058	0	0.01
    22	13.206	0	0.01
    23	13.8063	0	0.01
    24	14.4066	0	0.01
    25	15.0069	0	0.01
    26	15.6072	0	0.01
    27	16.2075	0	0.01
    28	16.8077	0	0.01
    29	17.408	0	0.01
    30	18.0083	0	0.01
    31	18.6086	0	0.01
    32	19.2088	0	0.01
    33	19.8091	0	0.01
    34	20.4094	0	0.01
    35	21.0096	0	0.01
    36	21.6099	0	0.01
    37	22.2102	0	0.01
    38	22.8104	0	0.01
    39	23.4107	0	0.01
    40	24.011	0	0.00999998
    41	24.6112	0	0.01
    42	25.2115	0	0.01

Measurement: pvccl
  step	AVG(-v(vccl)*i(v1))	FROM	TO
     1	1.5329	0.001	0.01
     2	1.6307	0.001	0.01
     3	1.79192	0.001	0.01
     4	2.00715	0.001	0.01
     5	2.26336	0.001	0.01
     6	2.54822	0.001	0.01
     7	2.85243	0.001	0.01
     8	3.16964	0.001	0.01
     9	3.49575	0.001	0.01
    10	3.82807	0.001	0.01
    11	4.16484	0.001	0.01
    12	4.5049	0.001	0.01
    13	4.84744	0.001	0.01
    14	5.19187	0.001	0.01
    15	5.53781	0.001	0.01
    16	5.88495	0.001	0.01
    17	6.23306	0.001	0.01
    18	6.58198	0.001	0.01
    19	6.93156	0.001	0.01
    20	7.27976	0.001	0.01
    21	7.32254	0.001	0.01
    22	5.73975	0.001	0.01
    23	5.04644	0.001	0.01
    24	4.58542	0.001	0.01
    25	4.23524	0.001	0.01
    26	3.95255	0.001	0.01
    27	3.71593	0.001	0.01
    28	3.51299	0.001	0.01
    29	3.33584	0.001	0.01
    30	3.1791	0.001	0.01
    31	3.03894	0.001	0.01
    32	2.91251	0.001	0.01
    33	2.79763	0.001	0.01
    34	2.6926	0.001	0.01
    35	2.59607	0.001	0.01
    36	2.50695	0.001	0.01
    37	2.42431	0.001	0.01
    38	2.34742	0.001	0.01
    39	2.27565	0.001	0.01
    40	2.20846	0.001	0.00999998
    41	2.14538	0.001	0.01
    42	2.08603	0.001	0.01

Measurement: pvssl
  step	AVG(v(vssl)*i(v2))	FROM	TO
     1	1.54193	0.001	0.01
     2	1.64788	0.001	0.01
     3	1.81725	0.001	0.01
     4	2.04063	0.001	0.01
     5	2.305	0.001	0.01
     6	2.59802	0.001	0.01
     7	2.91039	0.001	0.01
     8	3.23576	0.001	0.01
     9	3.57003	0.001	0.01
    10	3.91051	0.001	0.01
    11	4.25544	0.001	0.01
    12	4.60366	0.001	0.01
    13	4.95435	0.001	0.01
    14	5.30695	0.001	0.01
    15	5.66105	0.001	0.01
    16	6.01635	0.001	0.01
    17	6.37262	0.001	0.01
    18	6.7297	0.001	0.01
    19	7.08743	0.001	0.01
    20	7.44287	0.001	0.01
    21	6.86543	0.001	0.01
    22	5.55663	0.001	0.01
    23	4.94226	0.001	0.01
    24	4.51243	0.001	0.01
    25	4.1793	0.001	0.01
    26	3.90735	0.001	0.01
    27	3.67809	0.001	0.01
    28	3.48047	0.001	0.01
    29	3.30732	0.001	0.01
    30	3.15368	0.001	0.01
    31	3.01597	0.001	0.01
    32	2.89152	0.001	0.01
    33	2.77826	0.001	0.01
    34	2.67457	0.001	0.01
    35	2.57917	0.001	0.01
    36	2.491	0.001	0.01
    37	2.40918	0.001	0.01
    38	2.333	0.001	0.01
    39	2.26184	0.001	0.01
    40	2.19519	0.001	0.00999998
    41	2.13259	0.001	0.01
    42	2.07367	0.001	0.01

Measurement: pvcch
  step	AVG(-v(vcch)*i(v3))	FROM	TO
     1	0.378546	0.001	0.01
     2	0.378556	0.001	0.01
     3	0.37857	0.001	0.01
     4	0.378587	0.001	0.01
     5	0.378607	0.001	0.01
     6	0.378627	0.001	0.01
     7	0.378648	0.001	0.01
     8	0.378669	0.001	0.01
     9	0.37869	0.001	0.01
    10	0.378711	0.001	0.01
    11	0.378731	0.001	0.01
    12	0.37875	0.001	0.01
    13	0.378769	0.001	0.01
    14	0.378787	0.001	0.01
    15	0.378805	0.001	0.01
    16	0.378822	0.001	0.01
    17	0.378838	0.001	0.01
    18	0.378853	0.001	0.01
    19	0.378875	0.001	0.01
    20	0.383388	0.001	0.01
    21	1.10138	0.001	0.01
    22	5.61316	0.001	0.01
    23	8.05056	0.001	0.01
    24	9.94677	0.001	0.01
    25	11.585	0.001	0.01
    26	13.0664	0.001	0.01
    27	14.4408	0.001	0.01
    28	15.737	0.001	0.01
    29	16.9735	0.001	0.01
    30	18.1627	0.001	0.01
    31	19.3136	0.001	0.01
    32	20.4328	0.001	0.01
    33	21.5253	0.001	0.01
    34	22.5951	0.001	0.01
    35	23.6452	0.001	0.01
    36	24.6784	0.001	0.01
    37	25.6966	0.001	0.01
    38	26.7015	0.001	0.01
    39	27.6948	0.001	0.01
    40	28.6776	0.001	0.00999998
    41	29.6508	0.001	0.01
    42	30.6156	0.001	0.01

Measurement: pvssh
  step	AVG(v(vssh)*i(v4))	FROM	TO
     1	0.49689	0.001	0.01
     2	0.49689	0.001	0.01
     3	0.49689	0.001	0.01
     4	0.49689	0.001	0.01
     5	0.49689	0.001	0.01
     6	0.496889	0.001	0.01
     7	0.496889	0.001	0.01
     8	0.496888	0.001	0.01
     9	0.496888	0.001	0.01
    10	0.496887	0.001	0.01
    11	0.496886	0.001	0.01
    12	0.496885	0.001	0.01
    13	0.496883	0.001	0.01
    14	0.496882	0.001	0.01
    15	0.49688	0.001	0.01
    16	0.496879	0.001	0.01
    17	0.496877	0.001	0.01
    18	0.496875	0.001	0.01
    19	0.496913	0.001	0.01
    20	0.503531	0.001	0.01
    21	2.68771	0.001	0.01
    22	6.57923	0.001	0.01
    23	8.85148	0.001	0.01
    24	10.6939	0.001	0.01
    25	12.3114	0.001	0.01
    26	13.7867	0.001	0.01
    27	15.163	0.001	0.01
    28	16.4659	0.001	0.01
    29	17.7121	0.001	0.01
    30	18.9131	0.001	0.01
    31	20.0773	0.001	0.01
    32	21.2109	0.001	0.01
    33	22.3187	0.001	0.01
    34	23.4043	0.001	0.01
    35	24.4709	0.001	0.01
    36	25.5208	0.001	0.01
    37	26.5562	0.001	0.01
    38	27.5785	0.001	0.01
    39	28.5894	0.001	0.01
    40	29.59	0.001	0.00999998
    41	30.5811	0.001	0.01
    42	31.5639	0.001	0.01

Measurement: pin
  step	+pvccl+pvssl+pvcch+pvssh
     1	3.95026
     2	4.15402
     3	4.48463
     4	4.92325
     5	5.44385
     6	6.02176
     7	6.63835
     8	7.28096
     9	7.94135
    10	8.61417
    11	9.2959
    12	9.9842
    13	10.6774
    14	11.3745
    15	12.0745
    16	12.777
    17	13.4814
    18	14.1874
    19	14.8948
    20	15.6095
    21	17.9771
    22	23.4888
    23	26.8908
    24	29.7385
    25	32.311
    26	34.713
    27	36.9978
    28	39.1963
    29	41.3287
    30	43.4086
    31	45.4459
    32	47.4478
    33	49.4199
    34	51.3666
    35	53.2914
    36	55.1972
    37	57.0862
    38	58.9605
    39	60.8216
    40	62.6712
    41	64.5099
    42	66.3392

Measurement: eff
  step	+pout*100/pin
     1	0.576973
     2	2.19466
     3	4.57394
     4	7.40699
     5	10.4666
     6	13.6255
     7	16.8232
     8	20.0338
     9	23.2468
    10	26.4581
    11	29.6665
    12	32.8716
    13	36.0738
    14	39.2732
    15	42.4701
    16	45.6649
    17	48.8578
    18	52.0491
    19	55.2388
    20	58.4037
    21	55.91
    22	46.9627
    23	44.8353
    24	44.1438
    25	44.0856
    26	44.3834
    27	44.9074
    28	45.5864
    29	46.3777
    30	47.2532
    31	48.194
    32	49.1868
    33	50.2215
    34	51.2909
    35	52.3892
    36	53.5119
    37	54.6556
    38	55.8172
    39	56.9945
    40	58.1854
    41	59.3885
    42	60.6022


Date: Thu Dec 19 22:32:44 2019
Total elapsed time: 1500.323 seconds.

tnom = 27
temp = 27
method = modified trap
totiter = 283798
traniter = 281154
tranpoints = 140439
accept = 140251
rejected = 188
matrix size = 103
fillins = 180
Matrix Compiler1: 23.94 KB object code size  15.7/12.5/[12.4]
Matrix Compiler2: 14.49 KB object code size  7.1/8.2/[7.1]

