Circuit: * C:\Users\bakaneko\Facultad\Materias\Circuitos Electrónicos II\TPS\REPO-TPS\REPO-DSE\LTSPICE\amplifier\amplifier_THD_vs_freq.asc

Direct Newton iteration failed to find .op point.  (Use ".option noopiter" to skip.)
Starting Gmin stepping
Gmin = 10
Gmin = 1.07374
Gmin = 0.115292
Gmin = 0.0123794
Gmin = 0.00132923
Gmin = 0.000142725
Gmin = 1.5325e-005
Gmin = 1.6455e-006
vernier = 0.5
vernier = 0.25
vernier = 0.125
vernier = 0.0625
vernier = 0.03125
vernier = 0.015625
vernier = 0.0078125
Gmin = 2.04488e-006
vernier = 0.0104167
vernier = 0.0138889
Gmin = 1.99152e-006
vernier = 0.0185185
Gmin = 1.91041e-006
vernier = 0.0246913
vernier = 0.0329218
Gmin = 1.78177e-006
vernier = 0.0438957
vernier = 0.0219478
vernier = 0.0109739
vernier = 0.00548696
vernier = 0.00274348
Gmin = 1.69634e-006
vernier = 0.00137174
vernier = 0.00068587
vernier = 0.000514403
Gmin = 0
Gmin stepping failed

Starting source stepping with srcstepmethod=0
Source Step = 3.0303%
Source Step = 33.3333%
Source Step = 63.6364%
Source Step = 93.9394%
Source stepping succeeded in finding the operating point.

.step n=1
N-Period=4
Fourier components of V(out)
DC component:0.0109195

Harmonic	Frequency	 Fourier 	Normalized	 Phase  	Normalized
 Number 	  [Hz]   	Component	 Component	[degree]	Phase [deg]
    1   	2.000e+01	2.372e+01	1.000e+00	  -11.52°	    0.00°
    2   	4.000e+01	1.055e-03	4.446e-05	   11.97°	   23.49°
    3   	6.000e+01	7.001e-04	2.951e-05	   -2.61°	    8.92°
    4   	8.000e+01	4.706e-04	1.983e-05	    0.79°	   12.32°
    5   	1.000e+02	3.892e-04	1.641e-05	   -1.55°	    9.97°
    6   	1.200e+02	3.175e-04	1.338e-05	    1.08°	   12.60°
    7   	1.400e+02	2.726e-04	1.149e-05	   -1.24°	   10.28°
    8   	1.600e+02	2.364e-04	9.965e-06	    0.93°	   12.45°
    9   	1.800e+02	2.116e-04	8.920e-06	    1.85°	   13.37°
   10   	2.000e+02	1.901e-04	8.012e-06	    0.81°	   12.34°
   11   	2.200e+02	1.776e-04	7.486e-06	    3.04°	   14.56°
   12   	2.400e+02	1.592e-04	6.712e-06	    0.28°	   11.81°
   13   	2.600e+02	1.493e-04	6.293e-06	    1.34°	   12.86°
   14   	2.800e+02	1.363e-04	5.743e-06	   -0.14°	   11.39°
   15   	3.000e+02	1.232e-04	5.194e-06	   -0.05°	   11.47°
   16   	3.200e+02	1.191e-04	5.018e-06	    0.02°	   11.54°
   17   	3.400e+02	1.060e-04	4.470e-06	    0.66°	   12.18°
   18   	3.600e+02	1.064e-04	4.485e-06	    0.28°	   11.81°
   19   	3.800e+02	9.838e-05	4.147e-06	    0.70°	   12.22°
   20   	4.000e+02	9.611e-05	4.051e-06	    0.16°	   11.69°
   21   	4.200e+02	9.243e-05	3.896e-06	   -1.38°	   10.14°
   22   	4.400e+02	8.678e-05	3.658e-06	    0.05°	   11.57°
   23   	4.600e+02	8.381e-05	3.532e-06	   -2.48°	    9.05°
   24   	4.800e+02	7.887e-05	3.325e-06	    0.35°	   11.87°
   25   	5.000e+02	7.592e-05	3.200e-06	   -0.27°	   11.25°
   26   	5.200e+02	7.282e-05	3.069e-06	    0.58°	   12.10°
   27   	5.400e+02	7.175e-05	3.024e-06	    2.32°	   13.84°
   28   	5.600e+02	6.778e-05	2.857e-06	    0.21°	   11.73°
   29   	5.800e+02	6.781e-05	2.858e-06	    1.92°	   13.44°
   30   	6.000e+02	6.304e-05	2.657e-06	   -0.26°	   11.27°
Total Harmonic Distortion: 0.006685%(0.038983%)


.step n=2
N-Period=4
Fourier components of V(out)
DC component:0.0274438

Harmonic	Frequency	 Fourier 	Normalized	 Phase  	Normalized
 Number 	  [Hz]   	Component	 Component	[degree]	Phase [deg]
    1   	3.000e+01	2.457e+01	1.000e+00	  -37.38°	    0.00°
    2   	6.000e+01	1.733e-03	7.053e-05	    3.09°	   40.47°
    3   	9.000e+01	9.823e-04	3.997e-05	   -3.72°	   33.66°
    4   	1.200e+02	7.600e-04	3.093e-05	    1.27°	   38.65°
    5   	1.500e+02	5.925e-04	2.411e-05	    1.03°	   38.41°
    6   	1.800e+02	5.086e-04	2.070e-05	    0.20°	   37.57°
    7   	2.100e+02	4.352e-04	1.771e-05	    1.84°	   39.22°
    8   	2.400e+02	3.815e-04	1.552e-05	    0.01°	   37.39°
    9   	2.700e+02	3.369e-04	1.371e-05	   -0.08°	   37.29°
   10   	3.000e+02	3.033e-04	1.234e-05	    0.20°	   37.58°
   11   	3.300e+02	2.703e-04	1.100e-05	    1.46°	   38.84°
   12   	3.600e+02	2.545e-04	1.036e-05	    0.39°	   37.77°
   13   	3.900e+02	2.368e-04	9.634e-06	    1.50°	   38.88°
   14   	4.200e+02	2.182e-04	8.881e-06	   -0.07°	   37.30°
   15   	4.500e+02	2.017e-04	8.207e-06	    0.34°	   37.72°
   16   	4.800e+02	1.900e-04	7.731e-06	    0.00°	   37.38°
   17   	5.100e+02	1.787e-04	7.273e-06	    2.02°	   39.40°
   18   	5.400e+02	1.689e-04	6.874e-06	   -0.03°	   37.35°
   19   	5.700e+02	1.639e-04	6.669e-06	    0.77°	   38.14°
   20   	6.000e+02	1.512e-04	6.153e-06	    0.14°	   37.51°
   21   	6.300e+02	1.446e-04	5.884e-06	    0.61°	   37.99°
   22   	6.600e+02	1.383e-04	5.628e-06	    0.51°	   37.88°
   23   	6.900e+02	1.351e-04	5.498e-06	    1.59°	   38.96°
   24   	7.200e+02	1.271e-04	5.173e-06	    0.09°	   37.47°
   25   	7.500e+02	1.244e-04	5.063e-06	   -0.28°	   37.09°
   26   	7.800e+02	1.167e-04	4.748e-06	    0.23°	   37.61°
   27   	8.100e+02	1.128e-04	4.589e-06	    0.82°	   38.20°
   28   	8.400e+02	1.088e-04	4.429e-06	    0.35°	   37.73°
   29   	8.700e+02	1.085e-04	4.415e-06	    0.78°	   38.16°
   30   	9.000e+02	1.013e-04	4.122e-06	    0.26°	   37.64°
Total Harmonic Distortion: 0.010194%(0.061956%)

.step n=3
N-Period=4
Fourier components of V(out)
DC component:0.0388859

Harmonic	Frequency	 Fourier 	Normalized	 Phase  	Normalized
 Number 	  [Hz]   	Component	 Component	[degree]	Phase [deg]
    1   	4.000e+01	2.489e+01	1.000e+00	  -59.45°	    0.00°
    2   	8.000e+01	1.608e-03	6.460e-05	   -3.43°	   56.02°
    3   	1.200e+02	8.493e-04	3.412e-05	    0.28°	   59.73°
    4   	1.600e+02	7.133e-04	2.866e-05	    0.40°	   59.85°
    5   	2.000e+02	5.752e-04	2.311e-05	    1.55°	   61.00°
    6   	2.400e+02	4.674e-04	1.878e-05	    0.33°	   59.78°
    7   	2.800e+02	4.086e-04	1.641e-05	   -1.32°	   58.13°
    8   	3.200e+02	3.526e-04	1.416e-05	    0.55°	   60.00°
    9   	3.600e+02	3.153e-04	1.267e-05	    0.43°	   59.88°
   10   	4.000e+02	2.841e-04	1.141e-05	   -0.17°	   59.28°
   11   	4.400e+02	2.555e-04	1.026e-05	   -1.94°	   57.51°
   12   	4.800e+02	2.340e-04	9.403e-06	    0.08°	   59.52°
   13   	5.200e+02	2.117e-04	8.505e-06	    1.00°	   60.45°
   14   	5.600e+02	2.025e-04	8.135e-06	   -0.04°	   59.41°
   15   	6.000e+02	1.870e-04	7.513e-06	    0.02°	   59.47°
   16   	6.400e+02	1.756e-04	7.055e-06	   -0.20°	   59.25°
   17   	6.800e+02	1.663e-04	6.683e-06	    2.00°	   61.45°
   18   	7.200e+02	1.557e-04	6.257e-06	    0.04°	   59.49°
   19   	7.600e+02	1.524e-04	6.123e-06	   -0.72°	   58.73°
   20   	8.000e+02	1.410e-04	5.665e-06	    0.69°	   60.14°
   21   	8.400e+02	1.350e-04	5.422e-06	    0.03°	   59.48°
   22   	8.800e+02	1.295e-04	5.201e-06	   -0.18°	   59.27°
   23   	9.200e+02	1.228e-04	4.933e-06	   -1.89°	   57.56°
   24   	9.600e+02	1.173e-04	4.714e-06	   -0.04°	   59.41°
   25   	1.000e+03	1.100e-04	4.419e-06	    0.75°	   60.20°
   26   	1.040e+03	1.088e-04	4.370e-06	   -0.31°	   59.14°
   27   	1.080e+03	1.041e-04	4.180e-06	   -0.35°	   59.10°
   28   	1.120e+03	1.001e-04	4.022e-06	   -0.06°	   59.39°
   29   	1.160e+03	9.619e-05	3.864e-06	    2.06°	   61.51°
   30   	1.200e+03	9.352e-05	3.757e-06	    0.02°	   59.46°
Total Harmonic Distortion: 0.009275%(0.058953%)

.step n=4
N-Period=4
Fourier components of V(out)
DC component:0.0421374

Harmonic	Frequency	 Fourier 	Normalized	 Phase  	Normalized
 Number 	  [Hz]   	Component	 Component	[degree]	Phase [deg]
    1   	5.000e+01	2.504e+01	1.000e+00	  -79.93°	    0.00°
    2   	1.000e+02	8.134e-04	3.248e-05	  -17.83°	   62.10°
    3   	1.500e+02	4.215e-04	1.683e-05	    8.63°	   88.57°
    4   	2.000e+02	3.494e-04	1.395e-05	   -3.02°	   76.91°
    5   	2.500e+02	2.874e-04	1.148e-05	   -4.13°	   75.80°
    6   	3.000e+02	2.331e-04	9.310e-06	   -0.70°	   79.24°
    7   	3.500e+02	1.863e-04	7.440e-06	    0.51°	   80.45°
    8   	4.000e+02	1.730e-04	6.909e-06	   -1.98°	   77.95°
    9   	4.500e+02	1.514e-04	6.047e-06	   -1.62°	   78.31°
   10   	5.000e+02	1.363e-04	5.443e-06	    0.33°	   80.26°
   11   	5.500e+02	1.321e-04	5.274e-06	    2.05°	   81.98°
   12   	6.000e+02	1.154e-04	4.607e-06	   -1.16°	   78.78°
   13   	6.500e+02	1.033e-04	4.125e-06	   -3.94°	   75.99°
   14   	7.000e+02	9.893e-05	3.950e-06	    0.03°	   79.96°
   15   	7.500e+02	9.130e-05	3.646e-06	   -0.76°	   79.17°
   16   	8.000e+02	8.593e-05	3.432e-06	   -1.10°	   78.83°
   17   	8.500e+02	7.997e-05	3.194e-06	    3.57°	   83.50°
   18   	9.000e+02	7.541e-05	3.011e-06	   -0.23°	   79.70°
   19   	9.500e+02	7.561e-05	3.019e-06	   -3.21°	   76.72°
   20   	1.000e+03	7.043e-05	2.813e-06	    0.61°	   80.54°
   21   	1.050e+03	6.549e-05	2.615e-06	   -0.71°	   79.22°
   22   	1.100e+03	6.190e-05	2.472e-06	   -1.72°	   78.21°
   23   	1.150e+03	5.598e-05	2.235e-06	    0.82°	   80.75°
   24   	1.200e+03	5.742e-05	2.293e-06	    0.09°	   80.02°
   25   	1.250e+03	5.856e-05	2.339e-06	    0.13°	   80.06°
   26   	1.300e+03	5.265e-05	2.102e-06	    0.47°	   80.41°
   27   	1.350e+03	5.124e-05	2.046e-06	    0.30°	   80.23°
   28   	1.400e+03	4.985e-05	1.991e-06	   -0.67°	   79.26°
   29   	1.450e+03	4.579e-05	1.829e-06	   -4.31°	   75.63°
   30   	1.500e+03	4.601e-05	1.838e-06	   -0.89°	   79.04°
Total Harmonic Distortion: 0.004595%(0.034517%)

.step n=5
N-Period=4
Fourier components of V(out)
DC component:0.0371755

Harmonic	Frequency	 Fourier 	Normalized	 Phase  	Normalized
 Number 	  [Hz]   	Component	 Component	[degree]	Phase [deg]
    1   	6.000e+01	2.512e+01	1.000e+00	  -99.60°	    0.00°
    2   	1.200e+02	5.986e-04	2.383e-05	 -148.73°	  -49.12°
    3   	1.800e+02	2.535e-04	1.009e-05	  171.58°	  271.18°
    4   	2.400e+02	2.343e-04	9.326e-06	 -172.74°	  -73.14°
    5   	3.000e+02	1.975e-04	7.860e-06	 -173.13°	  -73.52°
    6   	3.600e+02	1.507e-04	5.999e-06	 -174.22°	  -74.61°
    7   	4.200e+02	1.175e-04	4.677e-06	 -177.70°	  -78.10°
    8   	4.800e+02	1.149e-04	4.573e-06	 -178.71°	  -79.11°
    9   	5.400e+02	9.889e-05	3.936e-06	 -178.80°	  -79.19°
   10   	6.000e+02	8.991e-05	3.578e-06	 -175.39°	  -75.79°
   11   	6.600e+02	9.135e-05	3.636e-06	 -177.01°	  -77.41°
   12   	7.200e+02	7.445e-05	2.963e-06	 -178.99°	  -79.38°
   13   	7.800e+02	6.247e-05	2.486e-06	 -177.07°	  -77.47°
   14   	8.400e+02	6.539e-05	2.603e-06	 -178.77°	  -79.17°
   15   	9.000e+02	6.026e-05	2.398e-06	 -177.78°	  -78.17°
   16   	9.600e+02	5.588e-05	2.224e-06	 -177.60°	  -78.00°
   17   	1.020e+03	5.700e-05	2.269e-06	  177.02°	  276.62°
   18   	1.080e+03	5.147e-05	2.049e-06	 -178.76°	  -79.16°
   19   	1.140e+03	4.536e-05	1.806e-06	 -172.95°	  -73.35°
   20   	1.200e+03	4.288e-05	1.707e-06	 -178.75°	  -79.14°
   21   	1.260e+03	4.352e-05	1.732e-06	 -178.90°	  -79.30°
   22   	1.320e+03	4.301e-05	1.712e-06	 -179.52°	  -79.92°
   23   	1.380e+03	3.836e-05	1.527e-06	  175.17°	  274.77°
   24   	1.440e+03	3.719e-05	1.480e-06	 -178.53°	  -78.92°
   25   	1.500e+03	3.823e-05	1.521e-06	 -174.24°	  -74.64°
   26   	1.560e+03	3.411e-05	1.358e-06	 -178.15°	  -78.55°
   27   	1.620e+03	3.345e-05	1.331e-06	 -178.32°	  -78.72°
   28   	1.680e+03	3.283e-05	1.307e-06	  179.75°	  279.35°
   29   	1.740e+03	2.800e-05	1.115e-06	  176.30°	  275.90°
   30   	1.800e+03	2.975e-05	1.184e-06	 -179.98°	  -80.37°
Total Harmonic Distortion: 0.003174%(0.022647%)

.step n=6
N-Period=4
Fourier components of V(out)
DC component:0.0253361

Harmonic	Frequency	 Fourier 	Normalized	 Phase  	Normalized
 Number 	  [Hz]   	Component	 Component	[degree]	Phase [deg]
    1   	7.000e+01	2.518e+01	1.000e+00	 -118.80°	    0.00°
    2   	1.400e+02	1.985e-03	7.885e-05	 -172.06°	  -53.26°
    3   	2.100e+02	1.098e-03	4.363e-05	 -176.72°	  -57.92°
    4   	2.800e+02	9.011e-04	3.579e-05	 -178.10°	  -59.29°
    5   	3.500e+02	7.210e-04	2.864e-05	 -179.50°	  -60.70°
    6   	4.200e+02	6.011e-04	2.388e-05	 -178.60°	  -59.79°
    7   	4.900e+02	5.175e-04	2.055e-05	 -177.53°	  -58.73°
    8   	5.600e+02	4.435e-04	1.762e-05	 -178.48°	  -59.67°
    9   	6.300e+02	3.986e-04	1.583e-05	 -178.50°	  -59.70°
   10   	7.000e+02	3.575e-04	1.420e-05	 -179.70°	  -60.89°
   11   	7.700e+02	3.163e-04	1.256e-05	 -178.59°	  -59.79°
   12   	8.400e+02	3.001e-04	1.192e-05	 -179.17°	  -60.36°
   13   	9.100e+02	2.774e-04	1.102e-05	  179.24°	  298.04°
   14   	9.800e+02	2.561e-04	1.017e-05	 -179.12°	  -60.32°
   15   	1.050e+03	2.381e-04	9.455e-06	 -179.29°	  -60.48°
   16   	1.120e+03	2.227e-04	8.844e-06	 -179.41°	  -60.61°
   17   	1.190e+03	2.163e-04	8.589e-06	 -179.77°	  -60.97°
   18   	1.260e+03	2.002e-04	7.953e-06	 -179.39°	  -60.59°
   19   	1.330e+03	1.858e-04	7.381e-06	 -178.02°	  -59.22°
   20   	1.400e+03	1.766e-04	7.013e-06	 -179.17°	  -60.37°
   21   	1.470e+03	1.707e-04	6.782e-06	 -179.75°	  -60.95°
   22   	1.540e+03	1.631e-04	6.480e-06	  179.62°	  298.42°
   23   	1.610e+03	1.514e-04	6.015e-06	 -179.50°	  -60.70°
   24   	1.680e+03	1.496e-04	5.943e-06	 -179.45°	  -60.64°
   25   	1.750e+03	1.453e-04	5.773e-06	  179.06°	  297.87°
   26   	1.820e+03	1.385e-04	5.503e-06	 -179.65°	  -60.84°
   27   	1.890e+03	1.328e-04	5.274e-06	 -179.80°	  -60.99°
   28   	1.960e+03	1.272e-04	5.053e-06	 -179.32°	  -60.51°
   29   	2.030e+03	1.273e-04	5.055e-06	 -178.96°	  -60.15°
   30   	2.100e+03	1.198e-04	4.758e-06	 -179.62°	  -60.82°
Total Harmonic Distortion: 0.011504%(0.068146%)

.step n=7
N-Period=4
Fourier components of V(out)
DC component:0.0084706

Harmonic	Frequency	 Fourier 	Normalized	 Phase  	Normalized
 Number 	  [Hz]   	Component	 Component	[degree]	Phase [deg]
    1   	8.000e+01	2.521e+01	1.000e+00	 -137.71°	    0.00°
    2   	1.600e+02	3.364e-03	1.334e-04	 -177.04°	  -39.33°
    3   	2.400e+02	2.046e-03	8.115e-05	 -175.53°	  -37.83°
    4   	3.200e+02	1.566e-03	6.210e-05	 -178.63°	  -40.92°
    5   	4.000e+02	1.239e-03	4.915e-05	 -178.82°	  -41.11°
    6   	4.800e+02	1.044e-03	4.141e-05	 -179.13°	  -41.42°
    7   	5.600e+02	9.013e-04	3.575e-05	 -179.78°	  -42.07°
    8   	6.400e+02	7.909e-04	3.137e-05	 -179.22°	  -41.52°
    9   	7.200e+02	6.982e-04	2.769e-05	 -179.56°	  -41.85°
   10   	8.000e+02	6.298e-04	2.498e-05	 -178.94°	  -41.23°
   11   	8.800e+02	5.787e-04	2.295e-05	  179.94°	  317.65°
   12   	9.600e+02	5.221e-04	2.071e-05	 -179.29°	  -41.58°
   13   	1.040e+03	4.891e-04	1.940e-05	 -178.85°	  -41.14°
   14   	1.120e+03	4.479e-04	1.777e-05	 -179.47°	  -41.77°
   15   	1.200e+03	4.185e-04	1.660e-05	 -179.60°	  -41.90°
   16   	1.280e+03	3.923e-04	1.556e-05	 -179.70°	  -41.99°
   17   	1.360e+03	3.750e-04	1.487e-05	 -179.14°	  -41.44°
   18   	1.440e+03	3.505e-04	1.390e-05	 -179.48°	  -41.78°
   19   	1.520e+03	3.277e-04	1.300e-05	 -178.80°	  -41.09°
   20   	1.600e+03	3.122e-04	1.238e-05	 -179.29°	  -41.59°
   21   	1.680e+03	2.991e-04	1.186e-05	 -179.84°	  -42.14°
   22   	1.760e+03	2.838e-04	1.125e-05	  179.93°	  317.64°
   23   	1.840e+03	2.722e-04	1.080e-05	 -178.84°	  -41.14°
   24   	1.920e+03	2.623e-04	1.040e-05	 -179.88°	  -42.18°
   25   	2.000e+03	2.474e-04	9.812e-06	 -179.97°	  -42.27°
   26   	2.080e+03	2.411e-04	9.563e-06	 -179.91°	  -42.21°
   27   	2.160e+03	2.324e-04	9.219e-06	 -179.73°	  -42.02°
   28   	2.240e+03	2.252e-04	8.934e-06	 -179.97°	  -42.27°
   29   	2.320e+03	2.125e-04	8.430e-06	  179.86°	  317.56°
   30   	2.400e+03	2.091e-04	8.293e-06	 -179.76°	  -42.05°
Total Harmonic Distortion: 0.019979%(0.120182%)

.step n=8
N-Period=4
Fourier components of V(out)
DC component:-0.0115968

Harmonic	Frequency	 Fourier 	Normalized	 Phase  	Normalized
 Number 	  [Hz]   	Component	 Component	[degree]	Phase [deg]
    1   	9.000e+01	2.524e+01	1.000e+00	 -156.41°	    0.00°
    2   	1.800e+02	4.562e-03	1.808e-04	 -179.17°	  -22.77°
    3   	2.700e+02	2.969e-03	1.176e-04	 -176.52°	  -20.11°
    4   	3.600e+02	2.188e-03	8.668e-05	 -178.55°	  -22.14°
    5   	4.500e+02	1.756e-03	6.959e-05	 -178.31°	  -21.91°
    6   	5.400e+02	1.462e-03	5.791e-05	 -178.88°	  -22.48°
    7   	6.300e+02	1.245e-03	4.932e-05	 -178.98°	  -22.57°
    8   	7.200e+02	1.093e-03	4.331e-05	 -179.43°	  -23.02°
    9   	8.100e+02	9.759e-04	3.867e-05	 -179.16°	  -22.76°
   10   	9.000e+02	8.769e-04	3.474e-05	 -179.76°	  -23.35°
   11   	9.900e+02	7.950e-04	3.150e-05	 -178.84°	  -22.43°
   12   	1.080e+03	7.328e-04	2.903e-05	 -179.75°	  -23.34°
   13   	1.170e+03	6.683e-04	2.648e-05	 -179.39°	  -22.99°
   14   	1.260e+03	6.277e-04	2.487e-05	 -179.72°	  -23.32°
   15   	1.350e+03	5.862e-04	2.323e-05	 -179.71°	  -23.31°
   16   	1.440e+03	5.498e-04	2.178e-05	 -179.75°	  -23.34°
   17   	1.530e+03	5.187e-04	2.055e-05	 -179.02°	  -22.61°
   18   	1.620e+03	4.891e-04	1.938e-05	 -179.53°	  -23.12°
   19   	1.710e+03	4.586e-04	1.817e-05	 -179.14°	  -22.73°
   20   	1.800e+03	4.378e-04	1.735e-05	 -179.37°	  -22.96°
   21   	1.890e+03	4.178e-04	1.655e-05	 -179.84°	  -23.44°
   22   	1.980e+03	3.965e-04	1.571e-05	 -179.67°	  -23.27°
   23   	2.070e+03	3.856e-04	1.528e-05	 -179.37°	  -22.96°
   24   	2.160e+03	3.653e-04	1.447e-05	 -179.85°	  -23.44°
   25   	2.250e+03	3.516e-04	1.393e-05	 -179.06°	  -22.66°
   26   	2.340e+03	3.378e-04	1.339e-05	 -179.62°	  -23.21°
   27   	2.430e+03	3.258e-04	1.291e-05	 -179.77°	  -23.36°
   28   	2.520e+03	3.129e-04	1.240e-05	 -179.66°	  -23.26°
   29   	2.610e+03	3.076e-04	1.219e-05	 -179.52°	  -23.12°
   30   	2.700e+03	2.933e-04	1.162e-05	 -179.84°	  -23.44°
Total Harmonic Distortion: 0.027707%(0.169308%)

.step n=9
N-Period=4
Fourier components of V(out)
DC component:-0.0333331

Harmonic	Frequency	 Fourier 	Normalized	 Phase  	Normalized
 Number 	  [Hz]   	Component	 Component	[degree]	Phase [deg]
    1   	1.000e+02	2.526e+01	1.000e+00	 -174.96°	    0.00°
    2   	2.000e+02	5.533e-03	2.191e-04	 -179.95°	   -4.99°
    3   	3.000e+02	3.749e-03	1.484e-04	 -178.18°	   -3.21°
    4   	4.000e+02	2.743e-03	1.086e-04	 -178.61°	   -3.65°
    5   	5.000e+02	2.213e-03	8.761e-05	 -179.06°	   -4.10°
    6   	6.000e+02	1.835e-03	7.266e-05	 -179.17°	   -4.21°
    7   	7.000e+02	1.578e-03	6.249e-05	 -179.15°	   -4.19°
    8   	8.000e+02	1.376e-03	5.446e-05	 -179.20°	   -4.24°
    9   	9.000e+02	1.221e-03	4.834e-05	 -179.66°	   -4.70°
   10   	1.000e+03	1.100e-03	4.356e-05	 -179.28°	   -4.32°
   11   	1.100e+03	9.980e-04	3.951e-05	  179.82°	  354.79°
   12   	1.200e+03	9.161e-04	3.627e-05	 -179.46°	   -4.50°
   13   	1.300e+03	8.464e-04	3.351e-05	  179.81°	  354.77°
   14   	1.400e+03	7.850e-04	3.108e-05	 -179.66°	   -4.70°
   15   	1.500e+03	7.324e-04	2.900e-05	 -179.69°	   -4.72°
   16   	1.600e+03	6.867e-04	2.719e-05	 -179.71°	   -4.75°
   17   	1.700e+03	6.419e-04	2.542e-05	 -179.25°	   -4.28°
   18   	1.800e+03	6.095e-04	2.413e-05	 -179.58°	   -4.62°
   19   	1.900e+03	5.723e-04	2.266e-05	 -179.36°	   -4.39°
   20   	2.000e+03	5.473e-04	2.167e-05	 -179.42°	   -4.46°
   21   	2.100e+03	5.211e-04	2.063e-05	 -179.81°	   -4.85°
   22   	2.200e+03	4.970e-04	1.968e-05	 -179.44°	   -4.48°
   23   	2.300e+03	4.810e-04	1.904e-05	  179.96°	  354.93°
   24   	2.400e+03	4.566e-04	1.808e-05	 -179.66°	   -4.69°
   25   	2.500e+03	4.434e-04	1.756e-05	 -179.92°	   -4.95°
   26   	2.600e+03	4.231e-04	1.675e-05	 -179.86°	   -4.90°
   27   	2.700e+03	4.063e-04	1.609e-05	 -179.86°	   -4.90°
   28   	2.800e+03	3.933e-04	1.557e-05	 -179.91°	   -4.94°
   29   	2.900e+03	3.738e-04	1.480e-05	  179.85°	  354.82°
   30   	3.000e+03	3.656e-04	1.447e-05	 -179.83°	   -4.87°
Total Harmonic Distortion: 0.034300%(0.212502%)

.step n=10
N-Period=4
Fourier components of V(out)
DC component:-0.206664

Harmonic	Frequency	 Fourier 	Normalized	 Phase  	Normalized
 Number 	  [Hz]   	Component	 Component	[degree]	Phase [deg]
    1   	2.000e+02	2.528e+01	1.000e+00	    2.49°	    0.00°
    2   	4.000e+02	8.687e-03	3.436e-04	  179.62°	  177.13°
    3   	6.000e+02	5.662e-03	2.240e-04	 -179.30°	 -181.79°
    4   	8.000e+02	4.325e-03	1.711e-04	 -179.32°	 -181.81°
    5   	1.000e+03	3.434e-03	1.358e-04	 -179.39°	 -181.89°
    6   	1.200e+03	2.892e-03	1.144e-04	 -179.60°	 -182.09°
    7   	1.400e+03	2.455e-03	9.710e-05	 -179.69°	 -182.18°
    8   	1.600e+03	2.171e-03	8.586e-05	 -179.58°	 -182.07°
    9   	1.800e+03	1.918e-03	7.585e-05	 -179.54°	 -182.03°
   10   	2.000e+03	1.738e-03	6.874e-05	 -179.61°	 -182.10°
   11   	2.200e+03	1.572e-03	6.217e-05	 -179.27°	 -181.76°
   12   	2.400e+03	1.446e-03	5.720e-05	 -179.72°	 -182.21°
   13   	2.600e+03	1.328e-03	5.253e-05	 -179.30°	 -181.79°
   14   	2.800e+03	1.236e-03	4.889e-05	 -179.86°	 -182.35°
   15   	3.000e+03	1.150e-03	4.548e-05	 -179.80°	 -182.29°
   16   	3.200e+03	1.080e-03	4.271e-05	 -179.90°	 -182.39°
   17   	3.400e+03	1.018e-03	4.025e-05	  179.61°	  177.12°
   18   	3.600e+03	9.605e-04	3.799e-05	 -179.77°	 -182.26°
   19   	3.800e+03	9.137e-04	3.614e-05	  179.49°	  177.00°
   20   	4.000e+03	8.665e-04	3.427e-05	 -179.56°	 -182.05°
   21   	4.200e+03	8.256e-04	3.266e-05	  179.95°	  177.46°
   22   	4.400e+03	7.889e-04	3.120e-05	 -179.48°	 -181.97°
   23   	4.600e+03	7.491e-04	2.963e-05	 -179.50°	 -181.99°
   24   	4.800e+03	7.222e-04	2.857e-05	 -179.67°	 -182.16°
   25   	5.000e+03	6.866e-04	2.716e-05	 -179.45°	 -181.94°
   26   	5.200e+03	6.647e-04	2.629e-05	  179.96°	  177.47°
   27   	5.400e+03	6.393e-04	2.529e-05	 -179.93°	 -182.42°
   28   	5.600e+03	6.158e-04	2.436e-05	  179.73°	  177.24°
   29   	5.800e+03	6.022e-04	2.382e-05	  179.61°	  177.12°
   30   	6.000e+03	5.746e-04	2.273e-05	  179.89°	  177.40°
Total Harmonic Distortion: 0.053433%(0.341275%)

.step n=11
N-Period=4
Fourier components of V(out)
DC component:-0.266351

Harmonic	Frequency	 Fourier 	Normalized	 Phase  	Normalized
 Number 	  [Hz]   	Component	 Component	[degree]	Phase [deg]
    1   	3.000e+02	2.532e+01	1.000e+00	 -178.37°	    0.00°
    2   	6.000e+02	7.079e-03	2.796e-04	  178.93°	  357.30°
    3   	9.000e+02	4.769e-03	1.883e-04	 -179.61°	   -1.23°
    4   	1.200e+03	3.519e-03	1.390e-04	 -179.47°	   -1.09°
    5   	1.500e+03	2.825e-03	1.116e-04	  179.90°	  358.27°
    6   	1.800e+03	2.357e-03	9.309e-05	 -179.71°	   -1.34°
    7   	2.100e+03	2.016e-03	7.961e-05	 -179.89°	   -1.52°
    8   	2.400e+03	1.772e-03	6.998e-05	 -179.63°	   -1.26°
    9   	2.700e+03	1.559e-03	6.157e-05	  179.77°	  358.14°
   10   	3.000e+03	1.420e-03	5.609e-05	 -179.64°	   -1.27°
   11   	3.300e+03	1.273e-03	5.026e-05	  179.25°	  357.62°
   12   	3.600e+03	1.180e-03	4.660e-05	 -179.77°	   -1.39°
   13   	3.900e+03	1.079e-03	4.262e-05	  179.19°	  357.56°
   14   	4.200e+03	1.006e-03	3.971e-05	 -179.93°	   -1.56°
   15   	4.500e+03	9.368e-04	3.699e-05	  179.93°	  358.30°
   16   	4.800e+03	8.764e-04	3.461e-05	 -179.98°	   -1.61°
   17   	5.100e+03	8.240e-04	3.254e-05	 -179.06°	   -0.68°
   18   	5.400e+03	7.807e-04	3.083e-05	 -179.81°	   -1.44°
   19   	5.700e+03	7.334e-04	2.896e-05	 -178.73°	   -0.36°
   20   	6.000e+03	7.074e-04	2.793e-05	 -179.52°	   -1.14°
   21   	6.300e+03	6.636e-04	2.621e-05	 -179.48°	   -1.11°
   22   	6.600e+03	6.460e-04	2.551e-05	 -179.37°	   -0.99°
   23   	6.900e+03	6.106e-04	2.411e-05	  179.44°	  357.81°
   24   	7.200e+03	5.902e-04	2.331e-05	 -179.59°	   -1.21°
   25   	7.500e+03	5.653e-04	2.232e-05	  179.15°	  357.53°
   26   	7.800e+03	5.397e-04	2.131e-05	  179.90°	  358.28°
   27   	8.100e+03	5.206e-04	2.056e-05	  179.99°	  358.37°
   28   	8.400e+03	4.971e-04	1.963e-05	  179.51°	  357.88°
   29   	8.700e+03	4.774e-04	1.885e-05	 -178.84°	   -0.47°
   30   	9.000e+03	4.642e-04	1.833e-05	  179.66°	  358.04°
Total Harmonic Distortion: 0.043752%(0.277849%)

.step n=12
N-Period=4
Fourier components of V(out)
DC component:-0.275424

Harmonic	Frequency	 Fourier 	Normalized	 Phase  	Normalized
 Number 	  [Hz]   	Component	 Component	[degree]	Phase [deg]
    1   	4.000e+02	2.530e+01	1.000e+00	    1.18°	    0.00°
    2   	8.000e+02	5.419e-03	2.142e-04	  178.20°	  177.02°
    3   	1.200e+03	3.461e-03	1.368e-04	 -179.43°	 -180.61°
    4   	1.600e+03	2.686e-03	1.061e-04	 -179.50°	 -180.69°
    5   	2.000e+03	2.114e-03	8.356e-05	 -179.06°	 -180.25°
    6   	2.400e+03	1.805e-03	7.133e-05	 -179.76°	 -180.95°
    7   	2.800e+03	1.512e-03	5.977e-05	 -179.63°	 -180.81°
    8   	3.200e+03	1.360e-03	5.373e-05	 -179.63°	 -180.81°
    9   	3.600e+03	1.185e-03	4.684e-05	 -179.20°	 -180.38°
   10   	4.000e+03	1.091e-03	4.313e-05	 -179.62°	 -180.80°
   11   	4.400e+03	9.730e-04	3.846e-05	 -178.43°	 -179.62°
   12   	4.800e+03	9.043e-04	3.574e-05	 -179.77°	 -180.95°
   13   	5.200e+03	8.207e-04	3.244e-05	 -178.36°	 -179.55°
   14   	5.600e+03	7.669e-04	3.031e-05	 -179.98°	 -181.17°
   15   	6.000e+03	7.092e-04	2.803e-05	 -179.65°	 -180.83°
   16   	6.400e+03	6.664e-04	2.634e-05	  179.94°	  178.76°
   17   	6.800e+03	6.288e-04	2.485e-05	  178.59°	  177.40°
   18   	7.200e+03	5.952e-04	2.352e-05	 -179.83°	 -181.01°
   19   	7.600e+03	5.670e-04	2.241e-05	  177.99°	  176.80°
   20   	8.000e+03	5.427e-04	2.145e-05	 -179.42°	 -180.60°
   21   	8.400e+03	5.129e-04	2.027e-05	  179.20°	  178.02°
   22   	8.800e+03	4.975e-04	1.966e-05	 -179.20°	 -180.39°
   23   	9.200e+03	4.635e-04	1.832e-05	 -178.91°	 -180.09°
   24   	9.600e+03	4.529e-04	1.790e-05	 -179.49°	 -180.67°
   25   	1.000e+04	4.225e-04	1.670e-05	 -178.33°	 -179.52°
   26   	1.040e+04	4.100e-04	1.620e-05	  179.81°	  178.63°
   27   	1.080e+04	3.936e-04	1.556e-05	 -179.87°	 -181.05°
   28   	1.120e+04	3.746e-04	1.481e-05	  179.24°	  178.06°
   29   	1.160e+04	3.744e-04	1.480e-05	  177.96°	  176.78°
   30   	1.200e+04	3.506e-04	1.386e-05	  179.45°	  178.27°
Total Harmonic Distortion: 0.033112%(0.211814%)

.step n=13
N-Period=4
Fourier components of V(out)
DC component:-0.266735

Harmonic	Frequency	 Fourier 	Normalized	 Phase  	Normalized
 Number 	  [Hz]   	Component	 Component	[degree]	Phase [deg]
    1   	5.000e+02	2.532e+01	1.000e+00	 -179.09°	    0.00°
    2   	1.000e+03	4.196e-03	1.657e-04	  177.40°	  356.49°
    3   	1.500e+03	2.824e-03	1.115e-04	  179.89°	  358.98°
    4   	2.000e+03	2.070e-03	8.174e-05	 -179.50°	   -0.41°
    5   	2.500e+03	1.657e-03	6.545e-05	  178.98°	  358.07°
    6   	3.000e+03	1.398e-03	5.520e-05	 -179.80°	   -0.71°
    7   	3.500e+03	1.181e-03	4.665e-05	  179.73°	  358.82°
    8   	4.000e+03	1.056e-03	4.170e-05	 -179.60°	   -0.51°
    9   	4.500e+03	9.097e-04	3.593e-05	  178.98°	  358.07°
   10   	5.000e+03	8.492e-04	3.354e-05	 -179.58°	   -0.49°
   11   	5.500e+03	7.418e-04	2.929e-05	  177.70°	  356.79°
   12   	6.000e+03	7.014e-04	2.770e-05	 -179.76°	   -0.67°
   13   	6.500e+03	6.307e-04	2.491e-05	  177.54°	  356.64°
   14   	7.000e+03	5.908e-04	2.333e-05	  179.96°	  359.05°
   15   	7.500e+03	5.481e-04	2.165e-05	  179.54°	  358.63°
   16   	8.000e+03	5.112e-04	2.019e-05	  179.84°	  358.93°
   17   	8.500e+03	4.811e-04	1.900e-05	 -177.61°	    1.48°
   18   	9.000e+03	4.582e-04	1.810e-05	 -179.87°	   -0.78°
   19   	9.500e+03	4.262e-04	1.683e-05	 -176.51°	    2.59°
   20   	1.000e+04	4.216e-04	1.665e-05	 -179.32°	   -0.23°
   21   	1.050e+04	3.846e-04	1.519e-05	 -178.45°	    0.64°
   22   	1.100e+04	3.886e-04	1.535e-05	 -179.00°	    0.09°
   23   	1.150e+04	3.562e-04	1.407e-05	  178.40°	  357.49°
   24   	1.200e+04	3.521e-04	1.390e-05	 -179.33°	   -0.24°
   25   	1.250e+04	3.326e-04	1.313e-05	  177.39°	  356.48°
   26   	1.300e+04	3.143e-04	1.241e-05	  179.73°	  358.82°
   27   	1.350e+04	3.055e-04	1.206e-05	  179.78°	  358.87°
   28   	1.400e+04	2.839e-04	1.121e-05	  178.91°	  358.00°
   29   	1.450e+04	2.769e-04	1.094e-05	 -176.38°	    2.71°
   30   	1.500e+04	2.664e-04	1.052e-05	  179.16°	  358.25°
Total Harmonic Distortion: 0.025854%(0.162585%)

.step n=14
N-Period=4
Fourier components of V(out)
DC component:-0.25236

Harmonic	Frequency	 Fourier 	Normalized	 Phase  	Normalized
 Number 	  [Hz]   	Component	 Component	[degree]	Phase [deg]
    1   	6.000e+02	2.531e+01	1.000e+00	    0.72°	    0.00°
    2   	1.200e+03	3.330e-03	1.316e-04	  176.54°	  175.82°
    3   	1.800e+03	2.044e-03	8.077e-05	 -179.07°	 -179.79°
    4   	2.400e+03	1.632e-03	6.450e-05	 -179.47°	 -180.19°
    5   	3.000e+03	1.265e-03	4.998e-05	 -177.95°	 -178.67°
    6   	3.600e+03	1.110e-03	4.385e-05	 -179.84°	 -180.56°
    7   	4.200e+03	9.059e-04	3.580e-05	 -179.25°	 -179.97°
    8   	4.800e+03	8.415e-04	3.325e-05	 -179.58°	 -180.30°
    9   	5.400e+03	7.143e-04	2.822e-05	 -178.21°	 -178.93°
   10   	6.000e+03	6.784e-04	2.681e-05	 -179.53°	 -180.24°
   11   	6.600e+03	5.881e-04	2.324e-05	 -176.36°	 -177.08°
   12   	7.200e+03	5.575e-04	2.203e-05	 -179.75°	 -180.46°
   13   	7.800e+03	4.944e-04	1.953e-05	 -176.12°	 -176.84°
   14   	8.400e+03	4.652e-04	1.838e-05	  179.87°	  179.15°
   15   	9.000e+03	4.253e-04	1.680e-05	 -179.17°	 -179.89°
   16   	9.600e+03	4.005e-04	1.582e-05	  179.69°	  178.97°
   17   	1.020e+04	3.792e-04	1.498e-05	  176.48°	  175.76°
   18   	1.080e+04	3.610e-04	1.427e-05	 -179.94°	 -180.66°
   19   	1.140e+04	3.451e-04	1.364e-05	  174.92°	  174.20°
   20   	1.200e+04	3.363e-04	1.329e-05	 -179.22°	 -179.94°
   21   	1.260e+04	3.118e-04	1.232e-05	  177.80°	  177.08°
   22   	1.320e+04	3.120e-04	1.233e-05	 -178.78°	 -179.50°
   23   	1.380e+04	2.793e-04	1.104e-05	 -177.44°	 -178.16°
   24   	1.440e+04	2.803e-04	1.108e-05	 -179.18°	 -179.90°
   25   	1.500e+04	2.523e-04	9.968e-06	 -175.75°	 -176.47°
   26   	1.560e+04	2.455e-04	9.700e-06	  179.58°	  178.86°
   27   	1.620e+04	2.349e-04	9.283e-06	 -179.64°	 -180.36°
   28   	1.680e+04	2.185e-04	8.635e-06	  178.47°	  177.75°
   29   	1.740e+04	2.282e-04	9.016e-06	  174.59°	  173.87°
   30   	1.800e+04	2.063e-04	8.151e-06	  178.82°	  178.10°
Total Harmonic Distortion: 0.020110%(0.127538%)

.step n=15
N-Period=4
Fourier components of V(out)
DC component:-0.236798

Harmonic	Frequency	 Fourier 	Normalized	 Phase  	Normalized
 Number 	  [Hz]   	Component	 Component	[degree]	Phase [deg]
    1   	7.000e+02	2.532e+01	1.000e+00	 -179.42°	    0.00°
    2   	1.400e+03	2.712e-03	1.071e-04	  175.59°	  355.01°
    3   	2.100e+03	1.810e-03	7.148e-05	  179.23°	  358.66°
    4   	2.800e+03	1.318e-03	5.205e-05	 -179.44°	   -0.01°
    5   	3.500e+03	1.049e-03	4.141e-05	  177.40°	  356.83°
    6   	4.200e+03	9.036e-04	3.569e-05	 -179.90°	   -0.48°
    7   	4.900e+03	7.449e-04	2.942e-05	  179.12°	  358.54°
    8   	5.600e+03	6.886e-04	2.720e-05	 -179.56°	   -0.14°
    9   	6.300e+03	5.702e-04	2.252e-05	  177.55°	  356.97°
   10   	7.000e+03	5.569e-04	2.199e-05	 -179.48°	   -0.05°
   11   	7.700e+03	4.654e-04	1.838e-05	  174.79°	  354.22°
   12   	8.400e+03	4.548e-04	1.796e-05	 -179.73°	   -0.31°
   13   	9.100e+03	3.979e-04	1.571e-05	  174.47°	  353.90°
   14   	9.800e+03	3.751e-04	1.481e-05	  179.76°	  359.18°
   15   	1.050e+04	3.458e-04	1.366e-05	  178.84°	  358.26°
   16   	1.120e+04	3.207e-04	1.267e-05	  179.48°	  358.90°
   17   	1.190e+04	3.028e-04	1.196e-05	 -174.84°	    4.58°
   18   	1.260e+04	2.913e-04	1.150e-05	  179.92°	  359.34°
   19   	1.330e+04	2.665e-04	1.053e-05	 -172.22°	    7.20°
   20   	1.400e+04	2.756e-04	1.088e-05	 -179.15°	    0.27°
   21   	1.470e+04	2.386e-04	9.424e-06	 -176.50°	    2.93°
   22   	1.540e+04	2.578e-04	1.018e-05	 -178.55°	    0.87°
   23   	1.610e+04	2.237e-04	8.835e-06	  176.36°	  355.78°
   24   	1.680e+04	2.294e-04	9.062e-06	 -178.99°	    0.43°
   25   	1.750e+04	2.124e-04	8.388e-06	  174.06°	  353.48°
   26   	1.820e+04	1.961e-04	7.743e-06	  179.45°	  358.87°
   27   	1.890e+04	1.940e-04	7.661e-06	  179.41°	  358.83°
   28   	1.960e+04	1.711e-04	6.758e-06	  177.91°	  357.33°
   29   	2.030e+04	1.737e-04	6.859e-06	 -171.57°	    7.85°
   30   	2.100e+04	1.627e-04	6.426e-06	  178.32°	  357.75°
Total Harmonic Distortion: 0.016591%(0.102233%)

.step n=16
N-Period=4
Fourier components of V(out)
DC component:-0.22174

Harmonic	Frequency	 Fourier 	Normalized	 Phase  	Normalized
 Number 	  [Hz]   	Component	 Component	[degree]	Phase [deg]
    1   	8.000e+02	2.531e+01	1.000e+00	    0.47°	    0.00°
    2   	1.600e+03	2.261e-03	8.934e-05	  174.58°	  174.12°
    3   	2.400e+03	1.305e-03	5.156e-05	 -178.23°	 -178.69°
    4   	3.200e+03	1.087e-03	4.296e-05	 -179.40°	 -179.87°
    5   	4.000e+03	8.236e-04	3.254e-05	 -175.91°	 -176.37°
    6   	4.800e+03	7.534e-04	2.977e-05	 -179.98°	 -180.45°
    7   	5.600e+03	5.910e-04	2.335e-05	 -178.49°	 -178.95°
    8   	6.400e+03	5.776e-04	2.282e-05	 -179.56°	 -180.03°
    9   	7.200e+03	4.704e-04	1.858e-05	 -176.42°	 -176.89°
   10   	8.000e+03	4.687e-04	1.852e-05	 -179.44°	 -179.90°
   11   	8.800e+03	3.895e-04	1.539e-05	 -172.76°	 -173.22°
   12   	9.600e+03	3.797e-04	1.500e-05	 -179.74°	 -180.20°
   13   	1.040e+04	3.255e-04	1.286e-05	 -172.18°	 -172.64°
   14   	1.120e+04	3.086e-04	1.219e-05	  179.61°	  179.14°
   15   	1.200e+04	2.769e-04	1.094e-05	 -178.27°	 -178.73°
   16   	1.280e+04	2.618e-04	1.034e-05	  179.19°	  178.72°
   17   	1.360e+04	2.500e-04	9.877e-06	  172.91°	  172.45°
   18   	1.440e+04	2.403e-04	9.492e-06	  179.70°	  179.24°
   19   	1.520e+04	2.320e-04	9.164e-06	  169.82°	  169.35°
   20   	1.600e+04	2.317e-04	9.155e-06	 -179.12°	 -179.59°
   21   	1.680e+04	2.082e-04	8.224e-06	  175.49°	  175.03°
   22   	1.760e+04	2.187e-04	8.640e-06	 -178.34°	 -178.80°
   23   	1.840e+04	1.840e-04	7.268e-06	 -174.79°	 -175.26°
   24   	1.920e+04	1.921e-04	7.591e-06	 -178.81°	 -179.28°
   25   	2.000e+04	1.640e-04	6.479e-06	 -171.04°	 -171.50°
   26   	2.080e+04	1.591e-04	6.286e-06	  179.23°	  178.77°
   27   	2.160e+04	1.514e-04	5.980e-06	 -179.13°	 -179.59°
   28   	2.240e+04	1.355e-04	5.353e-06	  177.17°	  176.70°
   29   	2.320e+04	1.530e-04	6.046e-06	  168.84°	  168.38°
   30   	2.400e+04	1.305e-04	5.156e-06	  177.72°	  177.25°
Total Harmonic Distortion: 0.013418%(0.083552%)

.step n=17
N-Period=4
Fourier components of V(out)
DC component:-0.207779

Harmonic	Frequency	 Fourier 	Normalized	 Phase  	Normalized
 Number 	  [Hz]   	Component	 Component	[degree]	Phase [deg]
    1   	9.000e+02	2.532e+01	1.000e+00	 -179.63°	    0.00°
    2   	1.800e+03	1.927e-03	7.609e-05	  173.52°	  353.15°
    3   	2.700e+03	1.261e-03	4.979e-05	  178.24°	  357.87°
    4   	3.600e+03	9.144e-04	3.612e-05	 -179.37°	    0.25°
    5   	4.500e+03	7.195e-04	2.842e-05	  174.92°	  354.54°
    6   	5.400e+03	6.417e-04	2.534e-05	  179.91°	  359.53°
    7   	6.300e+03	5.075e-04	2.004e-05	  178.14°	  357.77°
    8   	7.200e+03	4.953e-04	1.956e-05	 -179.59°	    0.04°
    9   	8.100e+03	3.855e-04	1.523e-05	  175.21°	  354.83°
   10   	9.000e+03	4.037e-04	1.595e-05	 -179.42°	    0.21°
   11   	9.900e+03	3.171e-04	1.253e-05	  170.08°	  349.70°
   12   	1.080e+04	3.241e-04	1.280e-05	 -179.75°	   -0.13°
   13   	1.170e+04	2.739e-04	1.082e-05	  169.55°	  349.18°
   14   	1.260e+04	2.589e-04	1.022e-05	  179.41°	  359.04°
   15   	1.350e+04	2.367e-04	9.347e-06	  177.67°	  357.30°
   16   	1.440e+04	2.174e-04	8.588e-06	  178.80°	  358.42°
   17   	1.530e+04	2.073e-04	8.188e-06	 -170.40°	    9.22°
   18   	1.620e+04	2.020e-04	7.977e-06	  179.39°	  359.01°
   19   	1.710e+04	1.819e-04	7.184e-06	 -165.23°	   14.40°
   20   	1.800e+04	1.993e-04	7.873e-06	 -179.16°	    0.47°
   21   	1.890e+04	1.590e-04	6.280e-06	 -173.18°	    6.45°
   22   	1.980e+04	1.902e-04	7.513e-06	 -178.16°	    1.47°
   23   	2.070e+04	1.520e-04	6.004e-06	  172.96°	  352.59°
   24   	2.160e+04	1.648e-04	6.510e-06	 -178.62°	    1.00°
   25   	2.250e+04	1.491e-04	5.887e-06	  168.73°	  348.36°
   26   	2.340e+04	1.314e-04	5.191e-06	  179.01°	  358.64°
   27   	2.430e+04	1.345e-04	5.311e-06	  178.68°	  358.30°
   28   	2.520e+04	1.083e-04	4.279e-06	  176.24°	  355.86°
   29   	2.610e+04	1.203e-04	4.753e-06	 -163.88°	   15.75°
   30   	2.700e+04	1.059e-04	4.182e-06	  176.89°	  356.52°
Total Harmonic Distortion: 0.011647%(0.069512%)

.step n=18
N-Period=4
Fourier components of V(out)
DC component:-0.195063

Harmonic	Frequency	 Fourier 	Normalized	 Phase  	Normalized
 Number 	  [Hz]   	Component	 Component	[degree]	Phase [deg]
    1   	1.000e+03	2.531e+01	1.000e+00	    0.30°	    0.00°
    2   	2.000e+03	1.673e-03	6.611e-05	  172.44°	  172.14°
    3   	3.000e+03	8.866e-04	3.503e-05	 -176.74°	 -177.04°
    4   	4.000e+03	7.822e-04	3.090e-05	 -179.36°	 -179.65°
    5   	5.000e+03	5.759e-04	2.275e-05	 -172.68°	 -172.98°
    6   	6.000e+03	5.571e-04	2.201e-05	  179.77°	  179.47°
    7   	7.000e+03	4.139e-04	1.635e-05	 -177.28°	 -177.57°
    8   	8.000e+03	4.334e-04	1.712e-05	 -179.64°	 -179.94°
    9   	9.000e+03	3.343e-04	1.321e-05	 -173.72°	 -174.02°
   10   	1.000e+04	3.549e-04	1.402e-05	 -179.43°	 -179.72°
   11   	1.100e+04	2.802e-04	1.107e-05	 -167.40°	 -167.69°
   12   	1.200e+04	2.819e-04	1.114e-05	 -179.80°	 -180.10°
   13   	1.300e+04	2.324e-04	9.181e-06	 -166.17°	 -166.47°
   14   	1.400e+04	2.206e-04	8.714e-06	  179.15°	  178.85°
   15   	1.500e+04	1.926e-04	7.608e-06	 -176.73°	 -177.03°
   16   	1.600e+04	1.831e-04	7.235e-06	  178.30°	  178.00°
   17   	1.700e+04	1.784e-04	7.049e-06	  167.63°	  167.34°
   18   	1.800e+04	1.727e-04	6.824e-06	  178.98°	  178.69°
   19   	1.900e+04	1.716e-04	6.778e-06	  162.53°	  162.24°
   20   	2.000e+04	1.751e-04	6.919e-06	 -179.26°	 -179.56°
   21   	2.100e+04	1.510e-04	5.966e-06	  172.03°	  171.73°
   22   	2.200e+04	1.691e-04	6.679e-06	 -178.04°	 -178.34°
   23   	2.300e+04	1.310e-04	5.177e-06	 -170.81°	 -171.10°
   24   	2.400e+04	1.440e-04	5.689e-06	 -178.49°	 -178.79°
   25   	2.500e+04	1.156e-04	4.566e-06	 -163.52°	 -163.82°
   26   	2.600e+04	1.097e-04	4.334e-06	  178.69°	  178.39°
   27   	2.700e+04	1.033e-04	4.079e-06	 -177.97°	 -178.27°
   28   	2.800e+04	8.687e-05	3.432e-06	  175.05°	  174.76°
   29   	2.900e+04	1.124e-04	4.441e-06	  160.55°	  160.26°
   30   	3.000e+04	8.679e-05	3.429e-06	  175.94°	  175.65°
Total Harmonic Distortion: 0.009712%(0.058638%)



Measurement: vrms
  step	RMS(v(out))	FROM	TO
     1	16.7018	0.005	0.5
     2	17.3697	0.005	0.333333
     3	17.6054	0.005	0.25
     4	17.685	0.005	0.2
     5	17.7023	0.005	0.166667
     6	17.7054	0.005	0.142857
     7	17.7212	0.005	0.125
     8	17.7594	0.005	0.111111
     9	17.8149	0.005	0.1
    10	17.8719	0.005	0.05
    11	17.8765	0.005	0.0333333
    12	17.8924	0.005	0.025
    13	17.8823	0.005	0.02
    14	17.8972	0.005	0.0166667
    15	17.8839	0.005	0.0142857
    16	17.8989	0.005	0.0125
    17	17.8841	0.005	0.0111111
    18	17.8997	0.005	0.01

Measurement: pout
  step	AVG(v(out)*i(rl))	FROM	TO
     1	34.8686	0.005	0.5
     2	37.7135	0.005	0.333333
     3	38.7436	0.005	0.25
     4	39.095	0.005	0.2
     5	39.1716	0.005	0.166667
     6	39.1852	0.005	0.142857
     7	39.2551	0.005	0.125
     8	39.4247	0.005	0.111111
     9	39.6712	0.005	0.1
    10	39.9254	0.005	0.05
    11	39.946	0.005	0.0333333
    12	40.0172	0.005	0.025
    13	39.9721	0.005	0.02
    14	40.0385	0.005	0.0166667
    15	39.9794	0.005	0.0142857
    16	40.0464	0.005	0.0125
    17	39.9801	0.005	0.0111111
    18	40.05	0.005	0.01

Measurement: vout_max
  step	MAX(v(out))	FROM	TO
     1	23.8418	0	0.5
     2	24.6518	0	0.333333
     3	24.9515	0	0.25
     4	25.0902	0	0.2
     5	25.1647	0	0.166667
     6	25.2094	0	0.142857
     7	25.237	0	0.125
     8	25.2513	0	0.111111
     9	25.2569	0	0.1
    10	25.1566	0	0.05
    11	25.1127	0	0.0333333
    12	25.0773	0	0.025
    13	25.0893	0	0.02
    14	25.0866	0	0.0166667
    15	25.105	0	0.0142857
    16	25.1094	0	0.0125
    17	25.1259	0	0.0111111
    18	25.1316	0	0.01


Date: Sun Dec 15 22:55:21 2019
Total elapsed time: 11792.659 seconds.

tnom = 27
temp = 27
method = modified trap
totiter = 403320
traniter = 400676
tranpoints = 200259
accept = 200151
rejected = 108
matrix size = 103
fillins = 180
Matrix Compiler1: 23.94 KB object code size  14.7/11.3/[8.0]
Matrix Compiler2: off  [5.8]/6.4/6.7

