Circuit: * C:\Users\bakaneko\Facultad\Materias\Circuitos Electrónicos II\TPS\REPO-TPS\REPO-DSE\LTSPICE\amplifier\amplifier_THD_vs_power.asc

Direct Newton iteration failed to find .op point.  (Use ".option noopiter" to skip.)
Starting Gmin stepping
Gmin = 10
Gmin = 1.07374
Gmin = 0.115292
Gmin = 0.0123794
Gmin = 0.00132923
Gmin = 0.000142725
Gmin = 1.5325e-005
Gmin = 1.6455e-006
vernier = 0.5
vernier = 0.25
vernier = 0.125
vernier = 0.0625
vernier = 0.03125
vernier = 0.015625
vernier = 0.0078125
Gmin = 2.04488e-006
vernier = 0.0104167
vernier = 0.0138889
Gmin = 1.99152e-006
vernier = 0.0185185
Gmin = 1.91041e-006
vernier = 0.0246913
vernier = 0.0329218
Gmin = 1.78177e-006
vernier = 0.0438957
vernier = 0.0219478
vernier = 0.0109739
vernier = 0.00548696
vernier = 0.00274348
Gmin = 1.69634e-006
vernier = 0.00137174
vernier = 0.00068587
vernier = 0.000514403
Gmin = 0
Gmin stepping failed

Starting source stepping with srcstepmethod=0
Source Step = 3.0303%
Source Step = 33.3333%
Source Step = 63.6364%
Source Step = 93.9394%
Source stepping succeeded in finding the operating point.

.step vpin=0.025
N-Period=4
Fourier components of V(out)
DC component:-0.00426011

Harmonic	Frequency	 Fourier 	Normalized	 Phase  	Normalized
 Number 	  [Hz]   	Component	 Component	[degree]	Phase [deg]
    1   	1.000e+03	6.038e-01	1.000e+00	    0.30°	    0.00°
    2   	2.000e+03	3.057e-05	5.062e-05	  179.93°	  179.63°
    3   	3.000e+03	1.949e-05	3.227e-05	  179.71°	  179.41°
    4   	4.000e+03	1.462e-05	2.422e-05	 -179.90°	 -180.19°
    5   	5.000e+03	1.169e-05	1.936e-05	 -179.91°	 -180.21°
    6   	6.000e+03	9.743e-06	1.613e-05	 -179.93°	 -180.23°
    7   	7.000e+03	8.353e-06	1.383e-05	 -179.95°	 -180.25°
    8   	8.000e+03	7.309e-06	1.210e-05	 -179.94°	 -180.24°
    9   	9.000e+03	6.496e-06	1.076e-05	 -179.95°	 -180.25°
   10   	1.000e+04	5.846e-06	9.682e-06	 -179.96°	 -180.26°
   11   	1.100e+04	5.315e-06	8.803e-06	 -179.96°	 -180.26°
   12   	1.200e+04	4.872e-06	8.069e-06	 -179.96°	 -180.26°
   13   	1.300e+04	4.497e-06	7.448e-06	 -179.97°	 -180.27°
   14   	1.400e+04	4.176e-06	6.916e-06	 -179.97°	 -180.27°
   15   	1.500e+04	3.898e-06	6.455e-06	 -179.97°	 -180.27°
   16   	1.600e+04	3.654e-06	6.051e-06	 -179.97°	 -180.27°
   17   	1.700e+04	3.439e-06	5.695e-06	 -179.98°	 -180.27°
   18   	1.800e+04	3.248e-06	5.379e-06	 -179.98°	 -180.27°
   19   	1.900e+04	3.077e-06	5.096e-06	 -179.98°	 -180.27°
   20   	2.000e+04	2.923e-06	4.841e-06	 -179.98°	 -180.28°
   21   	2.100e+04	2.784e-06	4.611e-06	 -179.98°	 -180.28°
   22   	2.200e+04	2.658e-06	4.401e-06	 -179.98°	 -180.28°
   23   	2.300e+04	2.542e-06	4.210e-06	 -179.98°	 -180.28°
   24   	2.400e+04	2.436e-06	4.034e-06	 -179.98°	 -180.28°
   25   	2.500e+04	2.339e-06	3.873e-06	 -179.98°	 -180.28°
   26   	2.600e+04	2.249e-06	3.724e-06	 -179.98°	 -180.28°
   27   	2.700e+04	2.165e-06	3.586e-06	 -179.98°	 -180.28°
   28   	2.800e+04	2.088e-06	3.458e-06	 -179.99°	 -180.28°
   29   	2.900e+04	2.016e-06	3.339e-06	 -179.99°	 -180.28°
   30   	3.000e+04	1.949e-06	3.227e-06	 -179.99°	 -180.28°
Total Harmonic Distortion: 0.007719%(0.048728%)


.step vpin=0.05
N-Period=4
Fourier components of V(out)
DC component:-0.00809164

Harmonic	Frequency	 Fourier 	Normalized	 Phase  	Normalized
 Number 	  [Hz]   	Component	 Component	[degree]	Phase [deg]
    1   	1.000e+03	1.208e+00	1.000e+00	    0.30°	    0.00°
    2   	2.000e+03	6.368e-05	5.273e-05	  179.67°	  179.37°
    3   	3.000e+03	3.898e-05	3.228e-05	  178.72°	  178.43°
    4   	4.000e+03	2.932e-05	2.428e-05	 -179.90°	 -180.20°
    5   	5.000e+03	2.339e-05	1.937e-05	  179.91°	  179.62°
    6   	6.000e+03	1.948e-05	1.613e-05	 -179.93°	 -180.23°
    7   	7.000e+03	1.671e-05	1.383e-05	 -179.96°	 -180.26°
    8   	8.000e+03	1.462e-05	1.210e-05	 -179.95°	 -180.24°
    9   	9.000e+03	1.299e-05	1.076e-05	 -179.94°	 -180.23°
   10   	1.000e+04	1.169e-05	9.681e-06	 -179.96°	 -180.26°
   11   	1.100e+04	1.063e-05	8.803e-06	 -179.97°	 -180.27°
   12   	1.200e+04	9.745e-06	8.069e-06	 -179.96°	 -180.26°
   13   	1.300e+04	8.994e-06	7.447e-06	 -179.97°	 -180.26°
   14   	1.400e+04	8.352e-06	6.916e-06	 -179.97°	 -180.27°
   15   	1.500e+04	7.796e-06	6.455e-06	 -179.97°	 -180.27°
   16   	1.600e+04	7.308e-06	6.051e-06	 -179.97°	 -180.27°
   17   	1.700e+04	6.878e-06	5.695e-06	 -179.98°	 -180.27°
   18   	1.800e+04	6.496e-06	5.379e-06	 -179.98°	 -180.27°
   19   	1.900e+04	6.154e-06	5.096e-06	 -179.98°	 -180.27°
   20   	2.000e+04	5.847e-06	4.841e-06	 -179.98°	 -180.28°
   21   	2.100e+04	5.568e-06	4.611e-06	 -179.98°	 -180.28°
   22   	2.200e+04	5.315e-06	4.401e-06	 -179.98°	 -180.28°
   23   	2.300e+04	5.084e-06	4.210e-06	 -179.98°	 -180.28°
   24   	2.400e+04	4.872e-06	4.034e-06	 -179.98°	 -180.28°
   25   	2.500e+04	4.677e-06	3.873e-06	 -179.98°	 -180.28°
   26   	2.600e+04	4.497e-06	3.724e-06	 -179.98°	 -180.28°
   27   	2.700e+04	4.331e-06	3.586e-06	 -179.98°	 -180.28°
   28   	2.800e+04	4.176e-06	3.458e-06	 -179.99°	 -180.28°
   29   	2.900e+04	4.032e-06	3.339e-06	 -179.99°	 -180.28°
   30   	3.000e+04	3.898e-06	3.227e-06	 -179.99°	 -180.28°
Total Harmonic Distortion: 0.007861%(0.048750%)

.step vpin=0.075
N-Period=4
Fourier components of V(out)
DC component:-0.0119235

Harmonic	Frequency	 Fourier 	Normalized	 Phase  	Normalized
 Number 	  [Hz]   	Component	 Component	[degree]	Phase [deg]
    1   	1.000e+03	1.812e+00	1.000e+00	    0.30°	    0.00°
    2   	2.000e+03	9.879e-05	5.453e-05	  179.44°	  179.14°
    3   	3.000e+03	5.850e-05	3.230e-05	  177.81°	  177.52°
    4   	4.000e+03	4.443e-05	2.453e-05	 -179.92°	 -180.21°
    5   	5.000e+03	3.509e-05	1.937e-05	  179.28°	  178.98°
    6   	6.000e+03	2.918e-05	1.611e-05	 -179.94°	 -180.23°
    7   	7.000e+03	2.506e-05	1.383e-05	  179.97°	  179.68°
    8   	8.000e+03	2.192e-05	1.210e-05	 -179.95°	 -180.24°
    9   	9.000e+03	1.949e-05	1.076e-05	 -179.93°	 -180.22°
   10   	1.000e+04	1.754e-05	9.680e-06	 -179.96°	 -180.26°
   11   	1.100e+04	1.595e-05	8.803e-06	 -179.98°	 -180.27°
   12   	1.200e+04	1.462e-05	8.070e-06	 -179.96°	 -180.26°
   13   	1.300e+04	1.349e-05	7.447e-06	 -179.96°	 -180.25°
   14   	1.400e+04	1.253e-05	6.915e-06	 -179.97°	 -180.27°
   15   	1.500e+04	1.169e-05	6.456e-06	 -179.98°	 -180.27°
   16   	1.600e+04	1.096e-05	6.052e-06	 -179.97°	 -180.27°
   17   	1.700e+04	1.032e-05	5.695e-06	 -179.97°	 -180.27°
   18   	1.800e+04	9.744e-06	5.379e-06	 -179.98°	 -180.28°
   19   	1.900e+04	9.232e-06	5.096e-06	 -179.98°	 -180.27°
   20   	2.000e+04	8.770e-06	4.841e-06	 -179.98°	 -180.27°
   21   	2.100e+04	8.352e-06	4.610e-06	 -179.98°	 -180.28°
   22   	2.200e+04	7.973e-06	4.401e-06	 -179.98°	 -180.28°
   23   	2.300e+04	7.626e-06	4.210e-06	 -179.98°	 -180.28°
   24   	2.400e+04	7.308e-06	4.034e-06	 -179.98°	 -180.28°
   25   	2.500e+04	7.016e-06	3.873e-06	 -179.98°	 -180.28°
   26   	2.600e+04	6.746e-06	3.724e-06	 -179.98°	 -180.28°
   27   	2.700e+04	6.496e-06	3.586e-06	 -179.98°	 -180.28°
   28   	2.800e+04	6.264e-06	3.458e-06	 -179.98°	 -180.28°
   29   	2.900e+04	6.048e-06	3.339e-06	 -179.99°	 -180.28°
   30   	3.000e+04	5.847e-06	3.227e-06	 -179.99°	 -180.28°
Total Harmonic Distortion: 0.007991%(0.048771%)

.step vpin=0.1
N-Period=4
Fourier components of V(out)
DC component:-0.0157556

Harmonic	Frequency	 Fourier 	Normalized	 Phase  	Normalized
 Number 	  [Hz]   	Component	 Component	[degree]	Phase [deg]
    1   	1.000e+03	2.415e+00	1.000e+00	    0.30°	    0.00°
    2   	2.000e+03	1.349e-04	5.585e-05	  179.23°	  178.94°
    3   	3.000e+03	7.801e-05	3.230e-05	  177.62°	  177.33°
    4   	4.000e+03	6.044e-05	2.502e-05	 -179.94°	 -180.24°
    5   	5.000e+03	4.683e-05	1.939e-05	  178.12°	  177.83°
    6   	6.000e+03	3.891e-05	1.611e-05	 -179.95°	 -180.24°
    7   	7.000e+03	3.341e-05	1.383e-05	  179.65°	  179.36°
    8   	8.000e+03	2.916e-05	1.207e-05	 -179.95°	 -180.25°
    9   	9.000e+03	2.598e-05	1.076e-05	 -179.94°	 -180.24°
   10   	1.000e+04	2.337e-05	9.674e-06	 -179.96°	 -180.26°
   11   	1.100e+04	2.126e-05	8.803e-06	 -179.97°	 -180.26°
   12   	1.200e+04	1.949e-05	8.070e-06	 -179.96°	 -180.26°
   13   	1.300e+04	1.799e-05	7.447e-06	 -179.95°	 -180.25°
   14   	1.400e+04	1.670e-05	6.915e-06	 -179.97°	 -180.27°
   15   	1.500e+04	1.559e-05	6.456e-06	 -179.98°	 -180.28°
   16   	1.600e+04	1.462e-05	6.052e-06	 -179.97°	 -180.27°
   17   	1.700e+04	1.375e-05	5.694e-06	 -179.97°	 -180.27°
   18   	1.800e+04	1.299e-05	5.378e-06	 -179.98°	 -180.28°
   19   	1.900e+04	1.231e-05	5.096e-06	 -179.98°	 -180.28°
   20   	2.000e+04	1.169e-05	4.841e-06	 -179.98°	 -180.27°
   21   	2.100e+04	1.114e-05	4.610e-06	 -179.98°	 -180.28°
   22   	2.200e+04	1.063e-05	4.401e-06	 -179.98°	 -180.28°
   23   	2.300e+04	1.017e-05	4.210e-06	 -179.98°	 -180.28°
   24   	2.400e+04	9.744e-06	4.034e-06	 -179.98°	 -180.28°
   25   	2.500e+04	9.354e-06	3.873e-06	 -179.98°	 -180.28°
   26   	2.600e+04	8.995e-06	3.724e-06	 -179.99°	 -180.28°
   27   	2.700e+04	8.661e-06	3.586e-06	 -179.98°	 -180.28°
   28   	2.800e+04	8.352e-06	3.458e-06	 -179.98°	 -180.28°
   29   	2.900e+04	8.064e-06	3.339e-06	 -179.99°	 -180.28°
   30   	3.000e+04	7.795e-06	3.227e-06	 -179.99°	 -180.28°
Total Harmonic Distortion: 0.008096%(0.048788%)

.step vpin=0.125
N-Period=4
Fourier components of V(out)
DC component:-0.0195879

Harmonic	Frequency	 Fourier 	Normalized	 Phase  	Normalized
 Number 	  [Hz]   	Component	 Component	[degree]	Phase [deg]
    1   	1.000e+03	3.019e+00	1.000e+00	    0.30°	    0.00°
    2   	2.000e+03	1.710e-04	5.664e-05	  179.04°	  178.74°
    3   	3.000e+03	9.745e-05	3.228e-05	  178.31°	  178.01°
    4   	4.000e+03	7.751e-05	2.567e-05	 -179.96°	 -180.26°
    5   	5.000e+03	5.863e-05	1.942e-05	  176.86°	  176.56°
    6   	6.000e+03	4.897e-05	1.622e-05	 -179.96°	 -180.26°
    7   	7.000e+03	4.178e-05	1.384e-05	  178.88°	  178.59°
    8   	8.000e+03	3.636e-05	1.204e-05	 -179.96°	 -180.26°
    9   	9.000e+03	3.247e-05	1.076e-05	  179.89°	  179.59°
   10   	1.000e+04	2.915e-05	9.654e-06	 -179.96°	 -180.26°
   11   	1.100e+04	2.657e-05	8.801e-06	 -179.95°	 -180.25°
   12   	1.200e+04	2.435e-05	8.065e-06	 -179.96°	 -180.26°
   13   	1.300e+04	2.248e-05	7.446e-06	 -179.92°	 -180.22°
   14   	1.400e+04	2.088e-05	6.914e-06	 -179.97°	 -180.27°
   15   	1.500e+04	1.949e-05	6.456e-06	 -179.98°	 -180.28°
   16   	1.600e+04	1.827e-05	6.052e-06	 -179.97°	 -180.27°
   17   	1.700e+04	1.719e-05	5.694e-06	 -179.96°	 -180.26°
   18   	1.800e+04	1.624e-05	5.378e-06	 -179.98°	 -180.28°
   19   	1.900e+04	1.539e-05	5.096e-06	 -179.98°	 -180.28°
   20   	2.000e+04	1.462e-05	4.841e-06	 -179.98°	 -180.27°
   21   	2.100e+04	1.392e-05	4.610e-06	 -179.98°	 -180.27°
   22   	2.200e+04	1.329e-05	4.401e-06	 -179.98°	 -180.28°
   23   	2.300e+04	1.271e-05	4.210e-06	 -179.98°	 -180.28°
   24   	2.400e+04	1.218e-05	4.034e-06	 -179.98°	 -180.28°
   25   	2.500e+04	1.169e-05	3.873e-06	 -179.98°	 -180.28°
   26   	2.600e+04	1.124e-05	3.724e-06	 -179.99°	 -180.28°
   27   	2.700e+04	1.083e-05	3.586e-06	 -179.98°	 -180.28°
   28   	2.800e+04	1.044e-05	3.458e-06	 -179.98°	 -180.28°
   29   	2.900e+04	1.008e-05	3.339e-06	 -179.99°	 -180.28°
   30   	3.000e+04	9.744e-06	3.227e-06	 -179.99°	 -180.28°
Total Harmonic Distortion: 0.008173%(0.048801%)

.step vpin=0.15
N-Period=4
Fourier components of V(out)
DC component:-0.0234205

Harmonic	Frequency	 Fourier 	Normalized	 Phase  	Normalized
 Number 	  [Hz]   	Component	 Component	[degree]	Phase [deg]
    1   	1.000e+03	3.623e+00	1.000e+00	    0.30°	    0.00°
    2   	2.000e+03	2.067e-04	5.705e-05	  178.86°	  178.56°
    3   	3.000e+03	1.168e-04	3.225e-05	  179.63°	  179.33°
    4   	4.000e+03	9.534e-05	2.632e-05	 -179.98°	 -180.28°
    5   	5.000e+03	7.048e-05	1.945e-05	  175.97°	  175.68°
    6   	6.000e+03	5.962e-05	1.646e-05	 -179.97°	 -180.27°
    7   	7.000e+03	5.020e-05	1.385e-05	  177.77°	  177.47°
    8   	8.000e+03	4.366e-05	1.205e-05	 -179.98°	 -180.28°
    9   	9.000e+03	3.898e-05	1.076e-05	  179.39°	  179.10°
   10   	1.000e+04	3.487e-05	9.624e-06	 -179.98°	 -180.27°
   11   	1.100e+04	3.188e-05	8.800e-06	  179.96°	  179.66°
   12   	1.200e+04	2.916e-05	8.049e-06	 -179.96°	 -180.26°
   13   	1.300e+04	2.698e-05	7.446e-06	 -179.90°	 -180.19°
   14   	1.400e+04	2.504e-05	6.910e-06	 -179.97°	 -180.27°
   15   	1.500e+04	2.339e-05	6.455e-06	 -179.96°	 -180.25°
   16   	1.600e+04	2.193e-05	6.052e-06	 -179.97°	 -180.26°
   17   	1.700e+04	2.063e-05	5.694e-06	 -179.95°	 -180.25°
   18   	1.800e+04	1.949e-05	5.378e-06	 -179.98°	 -180.28°
   19   	1.900e+04	1.847e-05	5.096e-06	 -179.99°	 -180.28°
   20   	2.000e+04	1.754e-05	4.842e-06	 -179.97°	 -180.27°
   21   	2.100e+04	1.670e-05	4.610e-06	 -179.98°	 -180.27°
   22   	2.200e+04	1.594e-05	4.401e-06	 -179.98°	 -180.28°
   23   	2.300e+04	1.525e-05	4.210e-06	 -179.98°	 -180.28°
   24   	2.400e+04	1.462e-05	4.034e-06	 -179.98°	 -180.28°
   25   	2.500e+04	1.403e-05	3.872e-06	 -179.98°	 -180.28°
   26   	2.600e+04	1.349e-05	3.724e-06	 -179.99°	 -180.28°
   27   	2.700e+04	1.299e-05	3.586e-06	 -179.98°	 -180.28°
   28   	2.800e+04	1.253e-05	3.458e-06	 -179.98°	 -180.28°
   29   	2.900e+04	1.210e-05	3.338e-06	 -179.99°	 -180.28°
   30   	3.000e+04	1.169e-05	3.227e-06	 -179.99°	 -180.28°
Total Harmonic Distortion: 0.008226%(0.048809%)

.step vpin=0.175
N-Period=4
Fourier components of V(out)
DC component:-0.0272533

Harmonic	Frequency	 Fourier 	Normalized	 Phase  	Normalized
 Number 	  [Hz]   	Component	 Component	[degree]	Phase [deg]
    1   	1.000e+03	4.227e+00	1.000e+00	    0.30°	    0.00°
    2   	2.000e+03	2.418e-04	5.721e-05	  178.68°	  178.38°
    3   	3.000e+03	1.362e-04	3.223e-05	 -178.76°	 -179.06°
    4   	4.000e+03	1.135e-04	2.685e-05	 -180.00°	 -180.29°
    5   	5.000e+03	8.232e-05	1.947e-05	  175.68°	  175.38°
    6   	6.000e+03	7.091e-05	1.678e-05	 -179.98°	 -180.28°
    7   	7.000e+03	5.868e-05	1.388e-05	  176.62°	  176.33°
    8   	8.000e+03	5.127e-05	1.213e-05	 -179.99°	 -180.29°
    9   	9.000e+03	4.551e-05	1.077e-05	  178.57°	  178.27°
   10   	1.000e+04	4.061e-05	9.607e-06	 -180.00°	 -180.29°
   11   	1.100e+04	3.720e-05	8.800e-06	  179.63°	  179.33°
   12   	1.200e+04	3.392e-05	8.024e-06	 -179.98°	 -180.27°
   13   	1.300e+04	3.147e-05	7.444e-06	 -179.94°	 -180.24°
   14   	1.400e+04	2.915e-05	6.897e-06	 -179.97°	 -180.27°
   15   	1.500e+04	2.728e-05	6.454e-06	 -179.92°	 -180.22°
   16   	1.600e+04	2.557e-05	6.049e-06	 -179.97°	 -180.26°
   17   	1.700e+04	2.407e-05	5.694e-06	 -179.92°	 -180.21°
   18   	1.800e+04	2.273e-05	5.378e-06	 -179.98°	 -180.27°
   19   	1.900e+04	2.154e-05	5.096e-06	 -179.97°	 -180.27°
   20   	2.000e+04	2.047e-05	4.842e-06	 -179.97°	 -180.27°
   21   	2.100e+04	1.948e-05	4.610e-06	 -179.97°	 -180.26°
   22   	2.200e+04	1.860e-05	4.401e-06	 -179.98°	 -180.28°
   23   	2.300e+04	1.780e-05	4.210e-06	 -179.99°	 -180.28°
   24   	2.400e+04	1.705e-05	4.034e-06	 -179.98°	 -180.28°
   25   	2.500e+04	1.637e-05	3.872e-06	 -179.98°	 -180.28°
   26   	2.600e+04	1.574e-05	3.724e-06	 -179.99°	 -180.28°
   27   	2.700e+04	1.516e-05	3.586e-06	 -179.98°	 -180.28°
   28   	2.800e+04	1.462e-05	3.458e-06	 -179.98°	 -180.28°
   29   	2.900e+04	1.411e-05	3.338e-06	 -179.99°	 -180.28°
   30   	3.000e+04	1.364e-05	3.227e-06	 -179.99°	 -180.28°
Total Harmonic Distortion: 0.008262%(0.048815%)

.step vpin=0.2
N-Period=4
Fourier components of V(out)
DC component:-0.0310862

Harmonic	Frequency	 Fourier 	Normalized	 Phase  	Normalized
 Number 	  [Hz]   	Component	 Component	[degree]	Phase [deg]
    1   	1.000e+03	4.831e+00	1.000e+00	    0.30°	    0.00°
    2   	2.000e+03	2.765e-04	5.724e-05	  178.51°	  178.21°
    3   	3.000e+03	1.557e-04	3.224e-05	 -177.11°	 -177.41°
    4   	4.000e+03	1.317e-04	2.725e-05	  179.98°	  179.69°
    5   	5.000e+03	9.409e-05	1.948e-05	  175.94°	  175.64°
    6   	6.000e+03	8.269e-05	1.712e-05	 -179.98°	 -180.28°
    7   	7.000e+03	6.721e-05	1.391e-05	  175.71°	  175.41°
    8   	8.000e+03	5.929e-05	1.227e-05	  180.00°	  179.70°
    9   	9.000e+03	5.208e-05	1.078e-05	  177.56°	  177.27°
   10   	1.000e+04	4.650e-05	9.626e-06	  179.99°	  179.69°
   11   	1.100e+04	4.253e-05	8.803e-06	  179.03°	  178.74°
   12   	1.200e+04	3.866e-05	8.002e-06	 -180.00°	 -180.30°
   13   	1.300e+04	3.596e-05	7.444e-06	  179.83°	  179.54°
   14   	1.400e+04	3.322e-05	6.876e-06	 -179.99°	 -180.28°
   15   	1.500e+04	3.117e-05	6.452e-06	 -179.95°	 -180.25°
   16   	1.600e+04	2.917e-05	6.038e-06	 -179.97°	 -180.27°
   17   	1.700e+04	2.750e-05	5.693e-06	 -179.88°	 -180.18°
   18   	1.800e+04	2.596e-05	5.374e-06	 -179.97°	 -180.27°
   19   	1.900e+04	2.462e-05	5.096e-06	 -179.94°	 -180.24°
   20   	2.000e+04	2.339e-05	4.842e-06	 -179.97°	 -180.27°
   21   	2.100e+04	2.227e-05	4.610e-06	 -179.95°	 -180.24°
   22   	2.200e+04	2.126e-05	4.401e-06	 -179.98°	 -180.28°
   23   	2.300e+04	2.034e-05	4.210e-06	 -179.98°	 -180.28°
   24   	2.400e+04	1.949e-05	4.035e-06	 -179.98°	 -180.27°
   25   	2.500e+04	1.871e-05	3.872e-06	 -179.98°	 -180.28°
   26   	2.600e+04	1.799e-05	3.724e-06	 -179.99°	 -180.28°
   27   	2.700e+04	1.732e-05	3.586e-06	 -179.99°	 -180.28°
   28   	2.800e+04	1.670e-05	3.458e-06	 -179.98°	 -180.28°
   29   	2.900e+04	1.613e-05	3.338e-06	 -179.99°	 -180.28°
   30   	3.000e+04	1.559e-05	3.227e-06	 -179.99°	 -180.29°
Total Harmonic Distortion: 0.008287%(0.048819%)

.step vpin=0.225
N-Period=4
Fourier components of V(out)
DC component:-0.0349194

Harmonic	Frequency	 Fourier 	Normalized	 Phase  	Normalized
 Number 	  [Hz]   	Component	 Component	[degree]	Phase [deg]
    1   	1.000e+03	5.435e+00	1.000e+00	    0.30°	    0.00°
    2   	2.000e+03	3.109e-04	5.721e-05	  178.34°	  178.05°
    3   	3.000e+03	1.753e-04	3.226e-05	 -175.58°	 -175.87°
    4   	4.000e+03	1.496e-04	2.754e-05	  179.97°	  179.67°
    5   	5.000e+03	1.058e-04	1.947e-05	  176.63°	  176.33°
    6   	6.000e+03	9.475e-05	1.743e-05	 -179.99°	 -180.29°
    7   	7.000e+03	7.575e-05	1.394e-05	  175.15°	  174.85°
    8   	8.000e+03	6.771e-05	1.246e-05	  180.00°	  179.70°
    9   	9.000e+03	5.871e-05	1.080e-05	  176.57°	  176.27°
   10   	1.000e+04	5.264e-05	9.687e-06	  179.97°	  179.68°
   11   	1.100e+04	4.789e-05	8.812e-06	  178.24°	  177.94°
   12   	1.200e+04	4.347e-05	7.999e-06	  179.98°	  179.68°
   13   	1.300e+04	4.046e-05	7.445e-06	  179.40°	  179.10°
   14   	1.400e+04	3.726e-05	6.856e-06	  179.99°	  179.70°
   15   	1.500e+04	3.506e-05	6.451e-06	  179.90°	  179.60°
   16   	1.600e+04	3.272e-05	6.021e-06	 -179.98°	 -180.28°
   17   	1.700e+04	3.093e-05	5.692e-06	 -179.89°	 -180.18°
   18   	1.800e+04	2.916e-05	5.365e-06	 -179.98°	 -180.27°
   19   	1.900e+04	2.769e-05	5.095e-06	 -179.91°	 -180.20°
   20   	2.000e+04	2.630e-05	4.839e-06	 -179.97°	 -180.27°
   21   	2.100e+04	2.505e-05	4.609e-06	 -179.91°	 -180.20°
   22   	2.200e+04	2.391e-05	4.400e-06	 -179.98°	 -180.28°
   23   	2.300e+04	2.288e-05	4.210e-06	 -179.96°	 -180.26°
   24   	2.400e+04	2.193e-05	4.035e-06	 -179.97°	 -180.27°
   25   	2.500e+04	2.104e-05	3.872e-06	 -179.97°	 -180.26°
   26   	2.600e+04	2.024e-05	3.724e-06	 -179.99°	 -180.28°
   27   	2.700e+04	1.949e-05	3.586e-06	 -179.99°	 -180.28°
   28   	2.800e+04	1.879e-05	3.458e-06	 -179.98°	 -180.28°
   29   	2.900e+04	1.814e-05	3.338e-06	 -179.98°	 -180.28°
   30   	3.000e+04	1.754e-05	3.227e-06	 -179.99°	 -180.29°
Total Harmonic Distortion: 0.008305%(0.048822%)

.step vpin=0.25
N-Period=4
Fourier components of V(out)
DC component:-0.0387528

Harmonic	Frequency	 Fourier 	Normalized	 Phase  	Normalized
 Number 	  [Hz]   	Component	 Component	[degree]	Phase [deg]
    1   	1.000e+03	6.038e+00	1.000e+00	    0.30°	    0.00°
    2   	2.000e+03	3.450e-04	5.714e-05	  178.18°	  177.88°
    3   	3.000e+03	1.950e-04	3.229e-05	 -174.22°	 -174.52°
    4   	4.000e+03	1.674e-04	2.772e-05	  179.95°	  179.66°
    5   	5.000e+03	1.175e-04	1.945e-05	  177.60°	  177.30°
    6   	6.000e+03	1.069e-04	1.771e-05	 -179.99°	 -180.29°
    7   	7.000e+03	8.426e-05	1.395e-05	  174.96°	  174.66°
    8   	8.000e+03	7.645e-05	1.266e-05	  180.00°	  179.70°
    9   	9.000e+03	6.538e-05	1.083e-05	  175.73°	  175.44°
   10   	1.000e+04	5.907e-05	9.783e-06	  179.97°	  179.67°
   11   	1.100e+04	5.330e-05	8.827e-06	  177.35°	  177.06°
   12   	1.200e+04	4.844e-05	8.021e-06	  179.96°	  179.66°
   13   	1.300e+04	4.499e-05	7.450e-06	  178.78°	  178.48°
   14   	1.400e+04	4.134e-05	6.845e-06	  179.97°	  179.67°
   15   	1.500e+04	3.896e-05	6.452e-06	  179.57°	  179.28°
   16   	1.600e+04	3.625e-05	6.004e-06	  180.00°	  179.70°
   17   	1.700e+04	3.436e-05	5.691e-06	 -179.99°	 -180.29°
   18   	1.800e+04	3.232e-05	5.352e-06	 -179.99°	 -180.29°
   19   	1.900e+04	3.076e-05	5.093e-06	 -179.91°	 -180.20°
   20   	2.000e+04	2.917e-05	4.831e-06	 -179.97°	 -180.27°
   21   	2.100e+04	2.783e-05	4.608e-06	 -179.87°	 -180.17°
   22   	2.200e+04	2.655e-05	4.397e-06	 -179.98°	 -180.27°
   23   	2.300e+04	2.542e-05	4.209e-06	 -179.93°	 -180.22°
   24   	2.400e+04	2.436e-05	4.035e-06	 -179.97°	 -180.27°
   25   	2.500e+04	2.338e-05	3.872e-06	 -179.94°	 -180.24°
   26   	2.600e+04	2.249e-05	3.724e-06	 -179.98°	 -180.28°
   27   	2.700e+04	2.166e-05	3.586e-06	 -179.98°	 -180.27°
   28   	2.800e+04	2.089e-05	3.459e-06	 -179.98°	 -180.28°
   29   	2.900e+04	2.016e-05	3.338e-06	 -179.98°	 -180.28°
   30   	3.000e+04	1.949e-05	3.227e-06	 -179.99°	 -180.28°
Total Harmonic Distortion: 0.008318%(0.048824%)

.step vpin=0.275
N-Period=4
Fourier components of V(out)
DC component:-0.0425864

Harmonic	Frequency	 Fourier 	Normalized	 Phase  	Normalized
 Number 	  [Hz]   	Component	 Component	[degree]	Phase [deg]
    1   	1.000e+03	6.642e+00	1.000e+00	    0.30°	    0.00°
    2   	2.000e+03	3.791e-04	5.707e-05	  178.01°	  177.72°
    3   	3.000e+03	2.147e-04	3.233e-05	 -173.07°	 -173.36°
    4   	4.000e+03	1.849e-04	2.784e-05	  179.94°	  179.64°
    5   	5.000e+03	1.291e-04	1.943e-05	  178.73°	  178.43°
    6   	6.000e+03	1.191e-04	1.793e-05	  180.00°	  179.70°
    7   	7.000e+03	9.272e-05	1.396e-05	  175.10°	  174.80°
    8   	8.000e+03	8.541e-05	1.286e-05	 -180.00°	 -180.29°
    9   	9.000e+03	7.207e-05	1.085e-05	  175.13°	  174.83°
   10   	1.000e+04	6.577e-05	9.902e-06	  179.97°	  179.67°
   11   	1.100e+04	5.875e-05	8.844e-06	  176.50°	  176.20°
   12   	1.200e+04	5.360e-05	8.069e-06	  179.95°	  179.65°
   13   	1.300e+04	4.955e-05	7.459e-06	  178.04°	  177.74°
   14   	1.400e+04	4.550e-05	6.850e-06	  179.95°	  179.65°
   15   	1.500e+04	4.287e-05	6.455e-06	  179.09°	  178.79°
   16   	1.600e+04	3.979e-05	5.991e-06	  179.97°	  179.67°
   17   	1.700e+04	3.780e-05	5.690e-06	  179.76°	  179.47°
   18   	1.800e+04	3.545e-05	5.337e-06	  179.99°	  179.69°
   19   	1.900e+04	3.382e-05	5.092e-06	 -179.99°	 -180.28°
   20   	2.000e+04	3.202e-05	4.820e-06	 -179.98°	 -180.28°
   21   	2.100e+04	3.060e-05	4.607e-06	 -179.86°	 -180.16°
   22   	2.200e+04	2.916e-05	4.390e-06	 -179.98°	 -180.28°
   23   	2.300e+04	2.795e-05	4.208e-06	 -179.89°	 -180.19°
   24   	2.400e+04	2.678e-05	4.032e-06	 -179.97°	 -180.27°
   25   	2.500e+04	2.572e-05	3.871e-06	 -179.90°	 -180.20°
   26   	2.600e+04	2.473e-05	3.723e-06	 -179.98°	 -180.27°
   27   	2.700e+04	2.382e-05	3.586e-06	 -179.95°	 -180.25°
   28   	2.800e+04	2.297e-05	3.459e-06	 -179.97°	 -180.27°
   29   	2.900e+04	2.217e-05	3.338e-06	 -179.96°	 -180.26°
   30   	3.000e+04	2.144e-05	3.228e-06	 -179.98°	 -180.28°
Total Harmonic Distortion: 0.008328%(0.048826%)

.step vpin=0.3
N-Period=4
Fourier components of V(out)
DC component:-0.0464202

Harmonic	Frequency	 Fourier 	Normalized	 Phase  	Normalized
 Number 	  [Hz]   	Component	 Component	[degree]	Phase [deg]
    1   	1.000e+03	7.246e+00	1.000e+00	    0.30°	    0.00°
    2   	2.000e+03	4.130e-04	5.699e-05	  177.85°	  177.55°
    3   	3.000e+03	2.345e-04	3.236e-05	 -172.11°	 -172.40°
    4   	4.000e+03	2.023e-04	2.792e-05	  179.93°	  179.64°
    5   	5.000e+03	1.407e-04	1.942e-05	  179.92°	  179.63°
    6   	6.000e+03	1.312e-04	1.811e-05	  179.99°	  179.69°
    7   	7.000e+03	1.011e-04	1.396e-05	  175.50°	  175.21°
    8   	8.000e+03	9.450e-05	1.304e-05	 -180.00°	 -180.29°
    9   	9.000e+03	7.875e-05	1.087e-05	  174.77°	  174.47°
   10   	1.000e+04	7.270e-05	1.003e-05	  179.98°	  179.68°
   11   	1.100e+04	6.423e-05	8.864e-06	  175.76°	  175.46°
   12   	1.200e+04	5.896e-05	8.137e-06	  179.95°	  179.65°
   13   	1.300e+04	5.414e-05	7.472e-06	  177.26°	  176.96°
   14   	1.400e+04	4.980e-05	6.872e-06	  179.93°	  179.64°
   15   	1.500e+04	4.681e-05	6.460e-06	  178.48°	  178.19°
   16   	1.600e+04	4.339e-05	5.988e-06	  179.95°	  179.65°
   17   	1.700e+04	4.125e-05	5.692e-06	  179.38°	  179.08°
   18   	1.800e+04	3.858e-05	5.324e-06	  179.97°	  179.67°
   19   	1.900e+04	3.689e-05	5.092e-06	  179.83°	  179.53°
   20   	2.000e+04	3.483e-05	4.807e-06	  180.00°	  179.70°
   21   	2.100e+04	3.337e-05	4.606e-06	 -179.92°	 -180.21°
   22   	2.200e+04	3.175e-05	4.381e-06	 -179.99°	 -180.29°
   23   	2.300e+04	3.049e-05	4.207e-06	 -179.88°	 -180.18°
   24   	2.400e+04	2.918e-05	4.026e-06	 -179.97°	 -180.27°
   25   	2.500e+04	2.805e-05	3.870e-06	 -179.86°	 -180.16°
   26   	2.600e+04	2.696e-05	3.720e-06	 -179.98°	 -180.27°
   27   	2.700e+04	2.598e-05	3.585e-06	 -179.92°	 -180.21°
   28   	2.800e+04	2.506e-05	3.458e-06	 -179.97°	 -180.27°
   29   	2.900e+04	2.419e-05	3.338e-06	 -179.93°	 -180.23°
   30   	3.000e+04	2.339e-05	3.228e-06	 -179.98°	 -180.28°
Total Harmonic Distortion: 0.008336%(0.048827%)

.step vpin=0.325
N-Period=4
Fourier components of V(out)
DC component:-0.0502542

Harmonic	Frequency	 Fourier 	Normalized	 Phase  	Normalized
 Number 	  [Hz]   	Component	 Component	[degree]	Phase [deg]
    1   	1.000e+03	7.850e+00	1.000e+00	    0.30°	    0.00°
    2   	2.000e+03	4.468e-04	5.692e-05	  177.69°	  177.39°
    3   	3.000e+03	2.542e-04	3.238e-05	 -171.33°	 -171.63°
    4   	4.000e+03	2.194e-04	2.795e-05	  179.93°	  179.63°
    5   	5.000e+03	1.524e-04	1.942e-05	 -178.88°	 -179.17°
    6   	6.000e+03	1.433e-04	1.825e-05	  179.98°	  179.68°
    7   	7.000e+03	1.095e-04	1.395e-05	  176.11°	  175.81°
    8   	8.000e+03	1.037e-04	1.320e-05	 -180.00°	 -180.30°
    9   	9.000e+03	8.540e-05	1.088e-05	  174.65°	  174.35°
   10   	1.000e+04	7.980e-05	1.017e-05	  179.98°	  179.68°
   11   	1.100e+04	6.973e-05	8.883e-06	  175.17°	  174.87°
   12   	1.200e+04	6.452e-05	8.219e-06	  179.95°	  179.65°
   13   	1.300e+04	5.877e-05	7.487e-06	  176.51°	  176.21°
   14   	1.400e+04	5.424e-05	6.910e-06	  179.92°	  179.63°
   15   	1.500e+04	5.078e-05	6.469e-06	  177.81°	  177.51°
   16   	1.600e+04	4.707e-05	5.996e-06	  179.93°	  179.63°
   17   	1.700e+04	4.471e-05	5.696e-06	  178.89°	  178.59°
   18   	1.800e+04	4.174e-05	5.317e-06	  179.94°	  179.64°
   19   	1.900e+04	3.997e-05	5.092e-06	  179.52°	  179.23°
   20   	2.000e+04	3.765e-05	4.796e-06	  179.97°	  179.67°
   21   	2.100e+04	3.615e-05	4.605e-06	  179.94°	  179.64°
   22   	2.200e+04	3.431e-05	4.370e-06	  179.99°	  179.70°
   23   	2.300e+04	3.302e-05	4.206e-06	 -179.93°	 -180.22°
   24   	2.400e+04	3.154e-05	4.018e-06	 -179.98°	 -180.28°
   25   	2.500e+04	3.037e-05	3.869e-06	 -179.85°	 -180.14°
   26   	2.600e+04	2.917e-05	3.715e-06	 -179.98°	 -180.28°
   27   	2.700e+04	2.814e-05	3.585e-06	 -179.88°	 -180.18°
   28   	2.800e+04	2.713e-05	3.456e-06	 -179.97°	 -180.27°
   29   	2.900e+04	2.620e-05	3.337e-06	 -179.89°	 -180.19°
   30   	3.000e+04	2.533e-05	3.227e-06	 -179.98°	 -180.27°
Total Harmonic Distortion: 0.008341%(0.048828%)

.step vpin=0.35
N-Period=4
Fourier components of V(out)
DC component:-0.0540884

Harmonic	Frequency	 Fourier 	Normalized	 Phase  	Normalized
 Number 	  [Hz]   	Component	 Component	[degree]	Phase [deg]
    1   	1.000e+03	8.454e+00	1.000e+00	    0.30°	    0.00°
    2   	2.000e+03	4.807e-04	5.686e-05	  177.52°	  177.23°
    3   	3.000e+03	2.738e-04	3.239e-05	 -170.71°	 -171.01°
    4   	4.000e+03	2.364e-04	2.797e-05	  179.92°	  179.63°
    5   	5.000e+03	1.642e-04	1.942e-05	 -177.72°	 -178.01°
    6   	6.000e+03	1.552e-04	1.836e-05	  179.96°	  179.67°
    7   	7.000e+03	1.178e-04	1.394e-05	  176.84°	  176.55°
    8   	8.000e+03	1.128e-04	1.335e-05	  180.00°	  179.70°
    9   	9.000e+03	9.202e-05	1.088e-05	  174.74°	  174.44°
   10   	1.000e+04	8.701e-05	1.029e-05	  179.99°	  179.69°
   11   	1.100e+04	7.523e-05	8.899e-06	  174.75°	  174.46°
   12   	1.200e+04	7.024e-05	8.309e-06	  179.95°	  179.66°
   13   	1.300e+04	6.343e-05	7.503e-06	  175.84°	  175.55°
   14   	1.400e+04	5.884e-05	6.960e-06	  179.92°	  179.62°
   15   	1.500e+04	5.478e-05	6.480e-06	  177.12°	  176.82°
   16   	1.600e+04	5.085e-05	6.015e-06	  179.91°	  179.61°
   17   	1.700e+04	4.820e-05	5.702e-06	  178.31°	  178.02°
   18   	1.800e+04	4.496e-05	5.318e-06	  179.92°	  179.62°
   19   	1.900e+04	4.307e-05	5.095e-06	  179.12°	  178.82°
   20   	2.000e+04	4.047e-05	4.787e-06	  179.94°	  179.65°
   21   	2.100e+04	3.893e-05	4.605e-06	  179.70°	  179.40°
   22   	2.200e+04	3.686e-05	4.360e-06	  179.97°	  179.67°
   23   	2.300e+04	3.555e-05	4.205e-06	  179.96°	  179.66°
   24   	2.400e+04	3.389e-05	4.009e-06	  180.00°	  179.70°
   25   	2.500e+04	3.270e-05	3.868e-06	 -179.88°	 -180.17°
   26   	2.600e+04	3.135e-05	3.709e-06	 -179.99°	 -180.29°
   27   	2.700e+04	3.029e-05	3.583e-06	 -179.87°	 -180.17°
   28   	2.800e+04	2.918e-05	3.451e-06	 -179.97°	 -180.27°
   29   	2.900e+04	2.821e-05	3.336e-06	 -179.86°	 -180.15°
   30   	3.000e+04	2.726e-05	3.224e-06	 -179.97°	 -180.27°
Total Harmonic Distortion: 0.008346%(0.048828%)

.step vpin=0.375
N-Period=4
Fourier components of V(out)
DC component:-0.0579227

Harmonic	Frequency	 Fourier 	Normalized	 Phase  	Normalized
 Number 	  [Hz]   	Component	 Component	[degree]	Phase [deg]
    1   	1.000e+03	9.058e+00	1.000e+00	    0.30°	    0.00°
    2   	2.000e+03	5.145e-04	5.681e-05	  177.36°	  177.06°
    3   	3.000e+03	2.934e-04	3.239e-05	 -170.24°	 -170.53°
    4   	4.000e+03	2.533e-04	2.797e-05	  179.92°	  179.63°
    5   	5.000e+03	1.760e-04	1.943e-05	 -176.62°	 -176.92°
    6   	6.000e+03	1.670e-04	1.844e-05	  179.95°	  179.66°
    7   	7.000e+03	1.261e-04	1.393e-05	  177.67°	  177.37°
    8   	8.000e+03	1.220e-04	1.347e-05	  179.99°	  179.70°
    9   	9.000e+03	9.860e-05	1.089e-05	  175.00°	  174.70°
   10   	1.000e+04	9.430e-05	1.041e-05	  179.99°	  179.69°
   11   	1.100e+04	8.072e-05	8.912e-06	  174.51°	  174.22°
   12   	1.200e+04	7.610e-05	8.402e-06	  179.96°	  179.66°
   13   	1.300e+04	6.811e-05	7.519e-06	  175.29°	  174.99°
   14   	1.400e+04	6.358e-05	7.020e-06	  179.92°	  179.63°
   15   	1.500e+04	5.881e-05	6.493e-06	  176.46°	  176.16°
   16   	1.600e+04	5.476e-05	6.045e-06	  179.90°	  179.61°
   17   	1.700e+04	5.172e-05	5.710e-06	  177.70°	  177.40°
   18   	1.800e+04	4.825e-05	5.327e-06	  179.90°	  179.60°
   19   	1.900e+04	4.618e-05	5.099e-06	  178.63°	  178.34°
   20   	2.000e+04	4.334e-05	4.784e-06	  179.92°	  179.62°
   21   	2.100e+04	4.173e-05	4.607e-06	  179.37°	  179.07°
   22   	2.200e+04	3.941e-05	4.351e-06	  179.94°	  179.65°
   23   	2.300e+04	3.809e-05	4.205e-06	  179.76°	  179.46°
   24   	2.400e+04	3.623e-05	4.000e-06	  179.97°	  179.68°
   25   	2.500e+04	3.503e-05	3.867e-06	 -179.97°	 -180.26°
   26   	2.600e+04	3.352e-05	3.701e-06	  180.00°	  179.70°
   27   	2.700e+04	3.245e-05	3.582e-06	 -179.89°	 -180.19°
   28   	2.800e+04	3.121e-05	3.446e-06	 -179.98°	 -180.28°
   29   	2.900e+04	3.021e-05	3.335e-06	 -179.84°	 -180.14°
   30   	3.000e+04	2.917e-05	3.220e-06	 -179.98°	 -180.27°
Total Harmonic Distortion: 0.008349%(0.048829%)

.step vpin=0.4
N-Period=4
Fourier components of V(out)
DC component:-0.0617574

Harmonic	Frequency	 Fourier 	Normalized	 Phase  	Normalized
 Number 	  [Hz]   	Component	 Component	[degree]	Phase [deg]
    1   	1.000e+03	9.662e+00	1.000e+00	    0.30°	    0.00°
    2   	2.000e+03	5.484e-04	5.676e-05	  177.19°	  176.90°
    3   	3.000e+03	3.128e-04	3.238e-05	 -169.88°	 -170.18°
    4   	4.000e+03	2.701e-04	2.796e-05	  179.92°	  179.63°
    5   	5.000e+03	1.879e-04	1.944e-05	 -175.60°	 -175.89°
    6   	6.000e+03	1.787e-04	1.850e-05	  179.94°	  179.64°
    7   	7.000e+03	1.344e-04	1.392e-05	  178.54°	  178.24°
    8   	8.000e+03	1.311e-04	1.357e-05	  179.99°	  179.69°
    9   	9.000e+03	1.051e-04	1.088e-05	  175.40°	  175.10°
   10   	1.000e+04	1.016e-04	1.052e-05	  179.99°	  179.69°
   11   	1.100e+04	8.619e-05	8.921e-06	  174.43°	  174.14°
   12   	1.200e+04	8.206e-05	8.493e-06	  179.97°	  179.67°
   13   	1.300e+04	7.279e-05	7.534e-06	  174.86°	  174.57°
   14   	1.400e+04	6.845e-05	7.085e-06	  179.93°	  179.63°
   15   	1.500e+04	6.286e-05	6.506e-06	  175.86°	  175.57°
   16   	1.600e+04	5.878e-05	6.084e-06	  179.90°	  179.60°
   17   	1.700e+04	5.526e-05	5.720e-06	  177.08°	  176.78°
   18   	1.800e+04	5.164e-05	5.345e-06	  179.89°	  179.59°
   19   	1.900e+04	4.932e-05	5.105e-06	  178.10°	  177.80°
   20   	2.000e+04	4.625e-05	4.787e-06	  179.90°	  179.60°
   21   	2.100e+04	4.454e-05	4.610e-06	  178.96°	  178.66°
   22   	2.200e+04	4.199e-05	4.346e-06	  179.92°	  179.62°
   23   	2.300e+04	4.063e-05	4.206e-06	  179.48°	  179.19°
   24   	2.400e+04	3.857e-05	3.992e-06	  179.95°	  179.65°
   25   	2.500e+04	3.736e-05	3.867e-06	  179.88°	  179.58°
   26   	2.600e+04	3.567e-05	3.692e-06	  179.97°	  179.68°
   27   	2.700e+04	3.460e-05	3.581e-06	 -179.97°	 -180.26°
   28   	2.800e+04	3.322e-05	3.439e-06	 -180.00°	 -180.30°
   29   	2.900e+04	3.221e-05	3.334e-06	 -179.85°	 -180.15°
   30   	3.000e+04	3.107e-05	3.215e-06	 -179.99°	 -180.28°
Total Harmonic Distortion: 0.008352%(0.048829%)

.step vpin=0.425
N-Period=4
Fourier components of V(out)
DC component:-0.0655922

Harmonic	Frequency	 Fourier 	Normalized	 Phase  	Normalized
 Number 	  [Hz]   	Component	 Component	[degree]	Phase [deg]
    1   	1.000e+03	1.027e+01	1.000e+00	    0.30°	    0.00°
    2   	2.000e+03	5.822e-04	5.672e-05	  177.02°	  176.73°
    3   	3.000e+03	3.322e-04	3.236e-05	 -169.64°	 -169.93°
    4   	4.000e+03	2.868e-04	2.794e-05	  179.93°	  179.63°
    5   	5.000e+03	1.998e-04	1.946e-05	 -174.65°	 -174.95°
    6   	6.000e+03	1.904e-04	1.854e-05	  179.93°	  179.63°
    7   	7.000e+03	1.428e-04	1.391e-05	  179.43°	  179.13°
    8   	8.000e+03	1.401e-04	1.365e-05	  179.98°	  179.69°
    9   	9.000e+03	1.116e-04	1.088e-05	  175.91°	  175.61°
   10   	1.000e+04	1.090e-04	1.062e-05	  179.99°	  179.69°
   11   	1.100e+04	9.163e-05	8.926e-06	  174.49°	  174.20°
   12   	1.200e+04	8.809e-05	8.581e-06	  179.97°	  179.67°
   13   	1.300e+04	7.746e-05	7.546e-06	  174.56°	  174.27°
   14   	1.400e+04	7.343e-05	7.153e-06	  179.93°	  179.64°
   15   	1.500e+04	6.693e-05	6.520e-06	  175.35°	  175.05°
   16   	1.600e+04	6.292e-05	6.129e-06	  179.90°	  179.60°
   17   	1.700e+04	5.883e-05	5.731e-06	  176.49°	  176.19°
   18   	1.800e+04	5.512e-05	5.369e-06	  179.88°	  179.58°
   19   	1.900e+04	5.248e-05	5.112e-06	  177.54°	  177.24°
   20   	2.000e+04	4.924e-05	4.797e-06	  179.88°	  179.58°
   21   	2.100e+04	4.737e-05	4.614e-06	  178.49°	  178.20°
   22   	2.200e+04	4.461e-05	4.346e-06	  179.89°	  179.59°
   23   	2.300e+04	4.319e-05	4.208e-06	  179.14°	  178.84°
   24   	2.400e+04	4.092e-05	3.986e-06	  179.92°	  179.62°
   25   	2.500e+04	3.970e-05	3.868e-06	  179.65°	  179.35°
   26   	2.600e+04	3.783e-05	3.685e-06	  179.95°	  179.65°
   27   	2.700e+04	3.676e-05	3.581e-06	  179.90°	  179.60°
   28   	2.800e+04	3.523e-05	3.431e-06	  179.98°	  179.68°
   29   	2.900e+04	3.422e-05	3.333e-06	 -179.91°	 -180.21°
   30   	3.000e+04	3.294e-05	3.209e-06	  180.00°	  179.70°
Total Harmonic Distortion: 0.008354%(0.048829%)

.step vpin=0.45
N-Period=4
Fourier components of V(out)
DC component:-0.0694272

Harmonic	Frequency	 Fourier 	Normalized	 Phase  	Normalized
 Number 	  [Hz]   	Component	 Component	[degree]	Phase [deg]
    1   	1.000e+03	1.087e+01	1.000e+00	    0.30°	    0.00°
    2   	2.000e+03	6.161e-04	5.668e-05	  176.86°	  176.56°
    3   	3.000e+03	3.513e-04	3.232e-05	 -169.48°	 -169.78°
    4   	4.000e+03	3.034e-04	2.791e-05	  179.94°	  179.64°
    5   	5.000e+03	2.117e-04	1.948e-05	 -173.79°	 -174.09°
    6   	6.000e+03	2.019e-04	1.857e-05	  179.92°	  179.62°
    7   	7.000e+03	1.511e-04	1.390e-05	 -179.68°	 -179.98°
    8   	8.000e+03	1.491e-04	1.372e-05	  179.98°	  179.68°
    9   	9.000e+03	1.181e-04	1.087e-05	  176.50°	  176.20°
   10   	1.000e+04	1.163e-04	1.070e-05	  179.99°	  179.69°
   11   	1.100e+04	9.704e-05	8.928e-06	  174.68°	  174.38°
   12   	1.200e+04	9.417e-05	8.663e-06	  179.98°	  179.68°
   13   	1.300e+04	8.213e-05	7.556e-06	  174.39°	  174.09°
   14   	1.400e+04	7.849e-05	7.221e-06	  179.94°	  179.64°
   15   	1.500e+04	7.100e-05	6.532e-06	  174.93°	  174.63°
   16   	1.600e+04	6.715e-05	6.178e-06	  179.90°	  179.61°
   17   	1.700e+04	6.242e-05	5.743e-06	  175.95°	  175.65°
   18   	1.800e+04	5.869e-05	5.399e-06	  179.87°	  179.58°
   19   	1.900e+04	5.566e-05	5.121e-06	  176.98°	  176.68°
   20   	2.000e+04	5.230e-05	4.812e-06	  179.86°	  179.57°
   21   	2.100e+04	5.022e-05	4.620e-06	  177.99°	  177.70°
   22   	2.200e+04	4.728e-05	4.350e-06	  179.87°	  179.57°
   23   	2.300e+04	4.577e-05	4.211e-06	  178.73°	  178.44°
   24   	2.400e+04	4.330e-05	3.984e-06	  179.89°	  179.60°
   25   	2.500e+04	4.205e-05	3.869e-06	  179.36°	  179.06°
   26   	2.600e+04	3.999e-05	3.679e-06	  179.92°	  179.62°
   27   	2.700e+04	3.892e-05	3.581e-06	  179.71°	  179.41°
   28   	2.800e+04	3.722e-05	3.425e-06	  179.95°	  179.66°
   29   	2.900e+04	3.623e-05	3.333e-06	  179.98°	  179.69°
   30   	3.000e+04	3.481e-05	3.203e-06	  179.98°	  179.68°
Total Harmonic Distortion: 0.008355%(0.048829%)

.step vpin=0.475
N-Period=4
Fourier components of V(out)
DC component:-0.0732624

Harmonic	Frequency	 Fourier 	Normalized	 Phase  	Normalized
 Number 	  [Hz]   	Component	 Component	[degree]	Phase [deg]
    1   	1.000e+03	1.147e+01	1.000e+00	    0.30°	    0.00°
    2   	2.000e+03	6.500e-04	5.666e-05	  176.68°	  176.39°
    3   	3.000e+03	3.704e-04	3.228e-05	 -169.41°	 -169.71°
    4   	4.000e+03	3.200e-04	2.789e-05	  179.95°	  179.65°
    5   	5.000e+03	2.237e-04	1.950e-05	 -172.99°	 -173.29°
    6   	6.000e+03	2.133e-04	1.859e-05	  179.90°	  179.61°
    7   	7.000e+03	1.595e-04	1.390e-05	 -178.84°	 -179.14°
    8   	8.000e+03	1.581e-04	1.378e-05	  179.97°	  179.68°
    9   	9.000e+03	1.246e-04	1.086e-05	  177.18°	  176.88°
   10   	1.000e+04	1.235e-04	1.077e-05	  179.97°	  179.68°
   11   	1.100e+04	1.025e-04	8.930e-06	  174.91°	  174.61°
   12   	1.200e+04	1.004e-04	8.748e-06	  179.99°	  179.70°
   13   	1.300e+04	8.674e-05	7.560e-06	  174.40°	  174.10°
   14   	1.400e+04	8.352e-05	7.280e-06	  179.92°	  179.63°
   15   	1.500e+04	7.513e-05	6.548e-06	  174.53°	  174.23°
   16   	1.600e+04	7.156e-05	6.237e-06	  179.94°	  179.65°
   17   	1.700e+04	6.597e-05	5.750e-06	  175.55°	  175.26°
   18   	1.800e+04	6.226e-05	5.427e-06	  179.83°	  179.53°
   19   	1.900e+04	5.892e-05	5.136e-06	  176.36°	  176.06°
   20   	2.000e+04	5.551e-05	4.838e-06	  179.91°	  179.61°
   21   	2.100e+04	5.302e-05	4.622e-06	  177.56°	  177.26°
   22   	2.200e+04	4.994e-05	4.353e-06	  179.79°	  179.49°
   23   	2.300e+04	4.842e-05	4.221e-06	  178.22°	  177.92°
   24   	2.400e+04	4.577e-05	3.989e-06	  179.94°	  179.64°
   25   	2.500e+04	4.435e-05	3.866e-06	  179.07°	  178.78°
   26   	2.600e+04	4.213e-05	3.672e-06	  179.82°	  179.52°
   27   	2.700e+04	4.115e-05	3.587e-06	  179.41°	  179.11°
   28   	2.800e+04	3.925e-05	3.421e-06	 -180.00°	 -180.30°
   29   	2.900e+04	3.818e-05	3.328e-06	  179.86°	  179.56°
   30   	3.000e+04	3.666e-05	3.195e-06	  179.88°	  179.58°
Total Harmonic Distortion: 0.008355%(0.048829%)

.step vpin=0.5
N-Period=4
Fourier components of V(out)
DC component:-0.0770978

Harmonic	Frequency	 Fourier 	Normalized	 Phase  	Normalized
 Number 	  [Hz]   	Component	 Component	[degree]	Phase [deg]
    1   	1.000e+03	1.208e+01	1.000e+00	    0.30°	    0.00°
    2   	2.000e+03	6.826e-04	5.652e-05	  176.52°	  176.22°
    3   	3.000e+03	3.871e-04	3.205e-05	 -169.79°	 -170.08°
    4   	4.000e+03	3.389e-04	2.806e-05	  179.97°	  179.67°
    5   	5.000e+03	2.375e-04	1.967e-05	 -171.32°	 -171.62°
    6   	6.000e+03	2.216e-04	1.835e-05	  179.85°	  179.55°
    7   	7.000e+03	1.670e-04	1.383e-05	 -179.62°	 -179.91°
    8   	8.000e+03	1.700e-04	1.408e-05	 -179.93°	 -180.23°
    9   	9.000e+03	1.314e-04	1.088e-05	  179.80°	  179.50°
   10   	1.000e+04	1.283e-04	1.062e-05	  179.82°	  179.52°
   11   	1.100e+04	1.079e-04	8.938e-06	  173.42°	  173.12°
   12   	1.200e+04	1.082e-04	8.956e-06	 -179.87°	 -180.17°
   13   	1.300e+04	9.130e-05	7.560e-06	  175.84°	  175.54°
   14   	1.400e+04	8.794e-05	7.282e-06	  179.87°	  179.57°
   15   	1.500e+04	7.913e-05	6.552e-06	  173.64°	  173.34°
   16   	1.600e+04	7.591e-05	6.285e-06	  179.87°	  179.57°
   17   	1.700e+04	6.985e-05	5.783e-06	  175.04°	  174.74°
   18   	1.800e+04	6.655e-05	5.511e-06	 -179.94°	 -180.24°
   19   	1.900e+04	6.178e-05	5.116e-06	  176.58°	  176.29°
   20   	2.000e+04	5.798e-05	4.801e-06	  179.60°	  179.30°
   21   	2.100e+04	5.626e-05	4.659e-06	  176.03°	  175.74°
   22   	2.200e+04	5.338e-05	4.420e-06	 -179.95°	 -180.25°
   23   	2.300e+04	5.084e-05	4.210e-06	  178.75°	  178.45°
   24   	2.400e+04	4.782e-05	3.959e-06	  179.79°	  179.49°
   25   	2.500e+04	4.673e-05	3.870e-06	  177.97°	  177.67°
   26   	2.600e+04	4.448e-05	3.683e-06	  179.70°	  179.41°
   27   	2.700e+04	4.352e-05	3.604e-06	  179.44°	  179.14°
   28   	2.800e+04	4.131e-05	3.420e-06	 -179.75°	 -180.04°
   29   	2.900e+04	3.992e-05	3.305e-06	  179.63°	  179.33°
   30   	3.000e+04	3.841e-05	3.180e-06	  179.49°	  179.19°
Total Harmonic Distortion: 0.008348%(0.048827%)

.step vpin=0.525
N-Period=4
Fourier components of V(out)
DC component:-0.0809328

Harmonic	Frequency	 Fourier 	Normalized	 Phase  	Normalized
 Number 	  [Hz]   	Component	 Component	[degree]	Phase [deg]
    1   	1.000e+03	1.268e+01	1.000e+00	    0.30°	    0.00°
    2   	2.000e+03	7.092e-04	5.592e-05	  176.38°	  176.09°
    3   	3.000e+03	3.945e-04	3.111e-05	 -171.79°	 -172.09°
    4   	4.000e+03	3.682e-04	2.903e-05	  179.91°	  179.61°
    5   	5.000e+03	2.603e-04	2.053e-05	 -166.40°	 -166.70°
    6   	6.000e+03	2.179e-04	1.718e-05	  179.81°	  179.52°
    7   	7.000e+03	1.718e-04	1.355e-05	  173.98°	  173.68°
    8   	8.000e+03	1.932e-04	1.524e-05	 -179.86°	 -180.15°
    9   	9.000e+03	1.420e-04	1.119e-05	 -171.87°	 -172.17°
   10   	1.000e+04	1.236e-04	9.744e-06	  179.69°	  179.39°
   11   	1.100e+04	1.142e-04	9.009e-06	  166.42°	  166.12°
   12   	1.200e+04	1.236e-04	9.747e-06	 -179.86°	 -180.16°
   13   	1.300e+04	9.680e-05	7.634e-06	 -177.42°	 -177.72°
   14   	1.400e+04	8.578e-05	6.765e-06	  179.89°	  179.59°
   15   	1.500e+04	8.401e-05	6.625e-06	  167.27°	  166.97°
   16   	1.600e+04	8.662e-05	6.831e-06	  179.96°	  179.66°
   17   	1.700e+04	7.354e-05	5.800e-06	 -178.72°	 -179.02°
   18   	1.800e+04	6.496e-05	5.123e-06	  179.71°	  179.41°
   19   	1.900e+04	6.595e-05	5.201e-06	  169.32°	  169.03°
   20   	2.000e+04	6.531e-05	5.150e-06	 -179.86°	 -180.16°
   21   	2.100e+04	5.896e-05	4.649e-06	 -178.35°	 -178.65°
   22   	2.200e+04	5.439e-05	4.289e-06	  179.59°	  179.30°
   23   	2.300e+04	5.353e-05	4.221e-06	  174.60°	  174.31°
   24   	2.400e+04	4.945e-05	3.899e-06	  179.66°	  179.36°
   25   	2.500e+04	4.981e-05	3.928e-06	  177.34°	  177.05°
   26   	2.600e+04	5.012e-05	3.952e-06	 -179.44°	 -179.74°
   27   	2.700e+04	4.462e-05	3.519e-06	 -176.40°	 -176.70°
   28   	2.800e+04	3.841e-05	3.029e-06	  178.48°	  178.18°
   29   	2.900e+04	4.371e-05	3.447e-06	  172.10°	  171.80°
   30   	3.000e+04	4.547e-05	3.586e-06	 -179.01°	 -179.30°
Total Harmonic Distortion: 0.008322%(0.048822%)

.step vpin=0.55
N-Period=4
Fourier components of V(out)
DC component:-0.0847713

Harmonic	Frequency	 Fourier 	Normalized	 Phase  	Normalized
 Number 	  [Hz]   	Component	 Component	[degree]	Phase [deg]
    1   	1.000e+03	1.328e+01	1.000e+00	    0.30°	    0.00°
    2   	2.000e+03	7.359e-04	5.539e-05	  175.80°	  175.50°
    3   	3.000e+03	3.934e-04	2.961e-05	 -174.53°	 -174.82°
    4   	4.000e+03	3.933e-04	2.961e-05	 -179.42°	 -179.72°
    5   	5.000e+03	2.877e-04	2.166e-05	 -162.92°	 -163.21°
    6   	6.000e+03	2.283e-04	1.719e-05	  178.96°	  178.66°
    7   	7.000e+03	1.758e-04	1.323e-05	  174.38°	  174.08°
    8   	8.000e+03	1.894e-04	1.426e-05	 -179.45°	 -179.75°
    9   	9.000e+03	1.473e-04	1.109e-05	 -179.81°	 -180.11°
   10   	1.000e+04	1.556e-04	1.171e-05	 -179.90°	 -180.19°
   11   	1.100e+04	1.186e-04	8.925e-06	 -173.35°	 -173.65°
   12   	1.200e+04	9.958e-05	7.496e-06	  178.69°	  178.39°
   13   	1.300e+04	1.083e-04	8.149e-06	  156.93°	  156.63°
   14   	1.400e+04	1.176e-04	8.856e-06	 -178.73°	 -179.03°
   15   	1.500e+04	9.041e-05	6.806e-06	 -166.25°	 -166.55°
   16   	1.600e+04	7.479e-05	5.630e-06	  178.66°	  178.36°
   17   	1.700e+04	7.876e-05	5.928e-06	  161.90°	  161.60°
   18   	1.800e+04	7.251e-05	5.458e-06	  179.81°	  179.51°
   19   	1.900e+04	7.082e-05	5.331e-06	  175.73°	  175.43°
   20   	2.000e+04	7.603e-05	5.723e-06	 -178.92°	 -179.22°
   21   	2.100e+04	5.976e-05	4.498e-06	 -171.37°	 -171.67°
   22   	2.200e+04	4.314e-05	3.247e-06	  176.72°	  176.43°
   23   	2.300e+04	6.320e-05	4.757e-06	  157.74°	  157.44°
   24   	2.400e+04	6.791e-05	5.112e-06	 -178.35°	 -178.64°
   25   	2.500e+04	5.350e-05	4.027e-06	 -158.97°	 -159.27°
   26   	2.600e+04	4.009e-05	3.018e-06	  177.90°	  177.60°
   27   	2.700e+04	5.089e-05	3.831e-06	  161.60°	  161.30°
   28   	2.800e+04	4.528e-05	3.409e-06	  179.88°	  179.58°
   29   	2.900e+04	4.511e-05	3.396e-06	 -176.27°	 -176.56°
   30   	3.000e+04	5.138e-05	3.868e-06	 -178.41°	 -178.70°
Total Harmonic Distortion: 0.008287%(0.048818%)

.step vpin=0.575
N-Period=4
Fourier components of V(out)
DC component:-0.0886087

Harmonic	Frequency	 Fourier 	Normalized	 Phase  	Normalized
 Number 	  [Hz]   	Component	 Component	[degree]	Phase [deg]
    1   	1.000e+03	1.389e+01	1.000e+00	    0.30°	    0.00°
    2   	2.000e+03	7.664e-04	5.518e-05	  175.46°	  175.17°
    3   	3.000e+03	4.053e-04	2.918e-05	 -175.15°	 -175.45°
    4   	4.000e+03	4.095e-04	2.948e-05	 -179.32°	 -179.62°
    5   	5.000e+03	2.958e-04	2.130e-05	 -164.48°	 -164.78°
    6   	6.000e+03	2.502e-04	1.801e-05	  179.35°	  179.05°
    7   	7.000e+03	1.901e-04	1.368e-05	 -175.11°	 -175.41°
    8   	8.000e+03	1.805e-04	1.300e-05	  179.56°	  179.26°
    9   	9.000e+03	1.514e-04	1.090e-05	  166.61°	  166.31°
   10   	1.000e+04	1.747e-04	1.258e-05	 -178.93°	 -179.22°
   11   	1.100e+04	1.319e-04	9.500e-06	 -165.31°	 -165.60°
   12   	1.200e+04	1.113e-04	8.012e-06	  178.64°	  178.34°
   13   	1.300e+04	1.048e-04	7.544e-06	  165.59°	  165.30°
   14   	1.400e+04	9.942e-05	7.159e-06	  179.69°	  179.39°
   15   	1.500e+04	9.679e-05	6.969e-06	  165.01°	  164.72°
   16   	1.600e+04	1.077e-04	7.754e-06	 -178.38°	 -178.68°
   17   	1.700e+04	8.237e-05	5.931e-06	 -161.58°	 -161.88°
   18   	1.800e+04	6.082e-05	4.379e-06	  176.94°	  176.64°
   19   	1.900e+04	7.910e-05	5.695e-06	  154.77°	  154.47°
   20   	2.000e+04	7.216e-05	5.196e-06	 -179.77°	 -180.07°
   21   	2.100e+04	6.709e-05	4.830e-06	  178.79°	  178.50°
   22   	2.200e+04	7.289e-05	5.248e-06	 -178.17°	 -178.47°
   23   	2.300e+04	5.702e-05	4.105e-06	 -164.00°	 -164.29°
   24   	2.400e+04	3.880e-05	2.794e-06	  174.60°	  174.31°
   25   	2.500e+04	6.451e-05	4.645e-06	  152.37°	  152.07°
   26   	2.600e+04	6.240e-05	4.493e-06	 -178.47°	 -178.77°
   27   	2.700e+04	5.192e-05	3.739e-06	 -162.19°	 -162.49°
   28   	2.800e+04	4.942e-05	3.558e-06	 -179.01°	 -179.31°
   29   	2.900e+04	4.383e-05	3.156e-06	 -178.57°	 -178.87°
   30   	3.000e+04	3.099e-05	2.232e-06	  174.03°	  173.73°
Total Harmonic Distortion: 0.008259%(0.048816%)

.step vpin=0.6
N-Period=4
Fourier components of V(out)
DC component:-0.092446

Harmonic	Frequency	 Fourier 	Normalized	 Phase  	Normalized
 Number 	  [Hz]   	Component	 Component	[degree]	Phase [deg]
    1   	1.000e+03	1.449e+01	1.000e+00	    0.30°	    0.00°
    2   	2.000e+03	7.982e-04	5.507e-05	  175.20°	  174.90°
    3   	3.000e+03	4.207e-04	2.903e-05	 -175.18°	 -175.47°
    4   	4.000e+03	4.233e-04	2.921e-05	 -179.36°	 -179.66°
    5   	5.000e+03	3.004e-04	2.073e-05	 -166.80°	 -167.10°
    6   	6.000e+03	2.719e-04	1.876e-05	  179.80°	  179.50°
    7   	7.000e+03	2.083e-04	1.437e-05	 -167.89°	 -168.19°
    8   	8.000e+03	1.803e-04	1.244e-05	  178.90°	  178.60°
    9   	9.000e+03	1.563e-04	1.079e-05	  164.05°	  163.75°
   10   	1.000e+04	1.764e-04	1.218e-05	 -179.04°	 -179.34°
   11   	1.100e+04	1.338e-04	9.230e-06	 -174.83°	 -175.13°
   12   	1.200e+04	1.365e-04	9.421e-06	 -179.78°	 -180.07°
   13   	1.300e+04	1.086e-04	7.495e-06	 -171.84°	 -172.14°
   14   	1.400e+04	8.880e-05	6.128e-06	  177.56°	  177.26°
   15   	1.500e+04	1.069e-04	7.374e-06	  152.55°	  152.26°
   16   	1.600e+04	1.075e-04	7.417e-06	 -178.65°	 -178.95°
   17   	1.700e+04	8.614e-05	5.944e-06	 -175.12°	 -175.41°
   18   	1.800e+04	8.900e-05	6.141e-06	 -179.08°	 -179.38°
   19   	1.900e+04	7.202e-05	4.970e-06	 -168.91°	 -169.21°
   20   	2.000e+04	5.278e-05	3.642e-06	  175.28°	  174.98°
   21   	2.100e+04	8.116e-05	5.600e-06	  150.31°	  150.01°
   22   	2.200e+04	7.611e-05	5.252e-06	 -178.50°	 -178.80°
   23   	2.300e+04	6.343e-05	4.377e-06	 -170.38°	 -170.68°
   24   	2.400e+04	6.580e-05	4.540e-06	 -178.23°	 -178.53°
   25   	2.500e+04	5.322e-05	3.673e-06	 -165.54°	 -165.83°
   26   	2.600e+04	3.602e-05	2.486e-06	  172.83°	  172.54°
   27   	2.700e+04	6.488e-05	4.477e-06	  150.63°	  150.34°
   28   	2.800e+04	6.035e-05	4.164e-06	 -178.36°	 -178.65°
   29   	2.900e+04	5.040e-05	3.478e-06	 -164.18°	 -164.47°
   30   	3.000e+04	5.231e-05	3.609e-06	 -177.56°	 -177.86°
Total Harmonic Distortion: 0.008250%(0.048815%)

.step vpin=0.625
N-Period=4
Fourier components of V(out)
DC component:-0.0962834

Harmonic	Frequency	 Fourier 	Normalized	 Phase  	Normalized
 Number 	  [Hz]   	Component	 Component	[degree]	Phase [deg]
    1   	1.000e+03	1.510e+01	1.000e+00	    0.30°	    0.00°
    2   	2.000e+03	8.306e-04	5.502e-05	  174.96°	  174.67°
    3   	3.000e+03	4.378e-04	2.900e-05	 -174.97°	 -175.27°
    4   	4.000e+03	4.361e-04	2.889e-05	 -179.44°	 -179.74°
    5   	5.000e+03	3.050e-04	2.020e-05	 -169.05°	 -169.35°
    6   	6.000e+03	2.915e-04	1.931e-05	 -179.87°	 -180.16°
    7   	7.000e+03	2.248e-04	1.489e-05	 -164.17°	 -164.47°
    8   	8.000e+03	1.874e-04	1.241e-05	  178.73°	  178.44°
    9   	9.000e+03	1.594e-04	1.056e-05	  168.47°	  168.17°
   10   	1.000e+04	1.714e-04	1.135e-05	 -179.67°	 -179.97°
   11   	1.100e+04	1.376e-04	9.117e-06	  172.61°	  172.31°
   12   	1.200e+04	1.561e-04	1.034e-05	 -178.84°	 -179.14°
   13   	1.300e+04	1.198e-04	7.935e-06	 -163.35°	 -163.65°
   14   	1.400e+04	9.790e-05	6.485e-06	  178.05°	  177.75°
   15   	1.500e+04	1.003e-04	6.647e-06	  163.34°	  163.05°
   16   	1.600e+04	9.162e-05	6.069e-06	  179.08°	  178.78°
   17   	1.700e+04	9.736e-05	6.449e-06	  159.05°	  158.75°
   18   	1.800e+04	1.068e-04	7.073e-06	 -177.69°	 -177.99°
   19   	1.900e+04	8.153e-05	5.401e-06	 -159.05°	 -159.34°
   20   	2.000e+04	6.761e-05	4.478e-06	  178.59°	  178.29°
   21   	2.100e+04	6.805e-05	4.508e-06	  171.81°	  171.51°
   22   	2.200e+04	5.350e-05	3.544e-06	  175.81°	  175.51°
   23   	2.300e+04	7.844e-05	5.196e-06	  152.59°	  152.29°
   24   	2.400e+04	7.914e-05	5.242e-06	 -177.18°	 -177.47°
   25   	2.500e+04	6.153e-05	4.076e-06	 -158.08°	 -158.37°
   26   	2.600e+04	5.662e-05	3.750e-06	 -179.23°	 -179.52°
   27   	2.700e+04	4.999e-05	3.312e-06	 -173.51°	 -173.80°
   28   	2.800e+04	3.472e-05	2.300e-06	  171.56°	  171.26°
   29   	2.900e+04	6.516e-05	4.317e-06	  150.13°	  149.83°
   30   	3.000e+04	6.059e-05	4.013e-06	 -177.75°	 -178.05°
Total Harmonic Distortion: 0.008238%(0.048814%)

.step vpin=0.65
N-Period=4
Fourier components of V(out)
DC component:-0.100121

Harmonic	Frequency	 Fourier 	Normalized	 Phase  	Normalized
 Number 	  [Hz]   	Component	 Component	[degree]	Phase [deg]
    1   	1.000e+03	1.570e+01	1.000e+00	    0.30°	    0.00°
    2   	2.000e+03	8.636e-04	5.501e-05	  174.75°	  174.45°
    3   	3.000e+03	4.557e-04	2.903e-05	 -174.68°	 -174.98°
    4   	4.000e+03	4.486e-04	2.857e-05	 -179.53°	 -179.82°
    5   	5.000e+03	3.104e-04	1.977e-05	 -170.98°	 -171.28°
    6   	6.000e+03	3.087e-04	1.967e-05	 -179.64°	 -179.94°
    7   	7.000e+03	2.378e-04	1.515e-05	 -162.79°	 -163.09°
    8   	8.000e+03	1.992e-04	1.269e-05	  178.90°	  178.60°
    9   	9.000e+03	1.643e-04	1.047e-05	  175.77°	  175.47°
   10   	1.000e+04	1.664e-04	1.060e-05	  179.58°	  179.28°
   11   	1.100e+04	1.445e-04	9.205e-06	  164.35°	  164.05°
   12   	1.200e+04	1.655e-04	1.054e-05	 -178.63°	 -178.93°
   13   	1.300e+04	1.245e-04	7.927e-06	 -167.21°	 -167.51°
   14   	1.400e+04	1.172e-04	7.462e-06	  179.67°	  179.37°
   15   	1.500e+04	9.948e-05	6.336e-06	 -177.00°	 -177.30°
   16   	1.600e+04	8.277e-05	5.272e-06	  177.04°	  176.74°
   17   	1.700e+04	1.055e-04	6.719e-06	  151.31°	  151.02°
   18   	1.800e+04	1.023e-04	6.519e-06	 -178.65°	 -178.95°
   19   	1.900e+04	8.390e-05	5.344e-06	 -180.00°	 -180.29°
   20   	2.000e+04	9.269e-05	5.904e-06	 -178.01°	 -178.31°
   21   	2.100e+04	7.325e-05	4.665e-06	 -158.08°	 -158.38°
   22   	2.200e+04	5.223e-05	3.327e-06	  175.01°	  174.71°
   23   	2.300e+04	7.466e-05	4.755e-06	  154.94°	  154.64°
   24   	2.400e+04	6.052e-05	3.855e-06	  178.30°	  178.01°
   25   	2.500e+04	7.053e-05	4.493e-06	  162.12°	  161.83°
   26   	2.600e+04	7.832e-05	4.988e-06	 -176.25°	 -176.55°
   27   	2.700e+04	5.996e-05	3.819e-06	 -149.26°	 -149.56°
   28   	2.800e+04	4.698e-05	2.992e-06	  178.53°	  178.23°
   29   	2.900e+04	4.966e-05	3.163e-06	  174.24°	  173.95°
   30   	3.000e+04	3.532e-05	2.249e-06	  171.48°	  171.19°
Total Harmonic Distortion: 0.008223%(0.048814%)

.step vpin=0.675
N-Period=4
Fourier components of V(out)
DC component:-0.103959

Harmonic	Frequency	 Fourier 	Normalized	 Phase  	Normalized
 Number 	  [Hz]   	Component	 Component	[degree]	Phase [deg]
    1   	1.000e+03	1.630e+01	1.000e+00	    0.30°	    0.00°
    2   	2.000e+03	8.970e-04	5.502e-05	  174.54°	  174.24°
    3   	3.000e+03	4.740e-04	2.907e-05	 -174.38°	 -174.68°
    4   	4.000e+03	4.611e-04	2.828e-05	 -179.61°	 -179.91°
    5   	5.000e+03	3.169e-04	1.944e-05	 -172.49°	 -172.79°
    6   	6.000e+03	3.239e-04	1.987e-05	 -179.51°	 -179.81°
    7   	7.000e+03	2.477e-04	1.519e-05	 -162.84°	 -163.14°
    8   	8.000e+03	2.134e-04	1.309e-05	  179.21°	  178.91°
    9   	9.000e+03	1.727e-04	1.059e-05	 -176.90°	 -177.20°
   10   	1.000e+04	1.644e-04	1.008e-05	  178.97°	  178.67°
   11   	1.100e+04	1.499e-04	9.194e-06	  161.54°	  161.25°
   12   	1.200e+04	1.670e-04	1.024e-05	 -178.90°	 -179.20°
   13   	1.300e+04	1.269e-04	7.785e-06	 -176.94°	 -177.24°
   14   	1.400e+04	1.366e-04	8.378e-06	 -179.11°	 -179.41°
   15   	1.500e+04	1.083e-04	6.642e-06	 -164.58°	 -164.88°
   16   	1.600e+04	8.701e-05	5.337e-06	  177.15°	  176.86°
   17   	1.700e+04	9.972e-05	6.116e-06	  158.67°	  158.37°
   18   	1.800e+04	8.896e-05	5.456e-06	  179.05°	  178.75°
   19   	1.900e+04	9.611e-05	5.895e-06	  158.36°	  158.07°
   20   	2.000e+04	1.043e-04	6.400e-06	 -177.34°	 -177.64°
   21   	2.100e+04	7.904e-05	4.848e-06	 -159.82°	 -160.12°
   22   	2.200e+04	7.199e-05	4.416e-06	  179.89°	  179.60°
   23   	2.300e+04	6.450e-05	3.956e-06	 -174.07°	 -174.37°
   24   	2.400e+04	4.702e-05	2.884e-06	  173.04°	  172.75°
   25   	2.500e+04	8.076e-05	4.953e-06	  148.77°	  148.48°
   26   	2.600e+04	6.930e-05	4.251e-06	 -178.94°	 -179.24°
   27   	2.700e+04	6.244e-05	3.830e-06	  178.20°	  177.90°
   28   	2.800e+04	7.291e-05	4.472e-06	 -175.98°	 -176.28°
   29   	2.900e+04	5.643e-05	3.461e-06	 -146.40°	 -146.70°
   30   	3.000e+04	3.860e-05	2.367e-06	  174.86°	  174.57°
Total Harmonic Distortion: 0.008221%(0.048814%)

.step vpin=0.7
N-Period=4
Fourier components of V(out)
DC component:-0.107797

Harmonic	Frequency	 Fourier 	Normalized	 Phase  	Normalized
 Number 	  [Hz]   	Component	 Component	[degree]	Phase [deg]
    1   	1.000e+03	1.691e+01	1.000e+00	    0.30°	    0.00°
    2   	2.000e+03	9.306e-04	5.504e-05	  174.33°	  174.03°
    3   	3.000e+03	4.925e-04	2.913e-05	 -174.11°	 -174.41°
    4   	4.000e+03	4.736e-04	2.801e-05	 -179.68°	 -179.98°
    5   	5.000e+03	3.244e-04	1.918e-05	 -173.61°	 -173.90°
    6   	6.000e+03	3.374e-04	1.995e-05	 -179.45°	 -179.75°
    7   	7.000e+03	2.554e-04	1.510e-05	 -163.73°	 -164.03°
    8   	8.000e+03	2.285e-04	1.352e-05	  179.55°	  179.25°
    9   	9.000e+03	1.835e-04	1.085e-05	 -171.00°	 -171.30°
   10   	1.000e+04	1.663e-04	9.835e-06	  178.62°	  178.32°
   11   	1.100e+04	1.526e-04	9.026e-06	  162.98°	  162.69°
   12   	1.200e+04	1.643e-04	9.715e-06	 -179.46°	 -179.75°
   13   	1.300e+04	1.320e-04	7.810e-06	  172.78°	  172.49°
   14   	1.400e+04	1.509e-04	8.924e-06	 -178.51°	 -178.81°
   15   	1.500e+04	1.157e-04	6.843e-06	 -162.57°	 -162.86°
   16   	1.600e+04	1.007e-04	5.956e-06	  178.68°	  178.38°
   17   	1.700e+04	9.437e-05	5.581e-06	  174.99°	  174.69°
   18   	1.800e+04	7.968e-05	4.713e-06	  176.83°	  176.53°
   19   	1.900e+04	1.047e-04	6.191e-06	  150.80°	  150.50°
   20   	2.000e+04	1.000e-04	5.916e-06	 -178.44°	 -178.74°
   21   	2.100e+04	8.214e-05	4.858e-06	  179.08°	  178.78°
   22   	2.200e+04	9.306e-05	5.504e-06	 -177.42°	 -177.71°
   23   	2.300e+04	7.302e-05	4.319e-06	 -154.15°	 -154.45°
   24   	2.400e+04	5.423e-05	3.207e-06	  175.87°	  175.57°
   25   	2.500e+04	6.752e-05	3.993e-06	  163.52°	  163.22°
   26   	2.600e+04	5.073e-05	3.000e-06	  174.82°	  174.52°
   27   	2.700e+04	7.869e-05	4.654e-06	  151.44°	  151.15°
   28   	2.800e+04	7.565e-05	4.474e-06	 -176.79°	 -177.09°
   29   	2.900e+04	5.854e-05	3.462e-06	 -163.49°	 -163.79°
   30   	3.000e+04	6.392e-05	3.781e-06	 -176.64°	 -176.93°
Total Harmonic Distortion: 0.008219%(0.048814%)

.step vpin=0.725
N-Period=4
Fourier components of V(out)
DC component:-0.111635

Harmonic	Frequency	 Fourier 	Normalized	 Phase  	Normalized
 Number 	  [Hz]   	Component	 Component	[degree]	Phase [deg]
    1   	1.000e+03	1.751e+01	1.000e+00	    0.30°	    0.00°
    2   	2.000e+03	9.646e-04	5.508e-05	  174.13°	  173.83°
    3   	3.000e+03	5.110e-04	2.918e-05	 -173.89°	 -174.19°
    4   	4.000e+03	4.864e-04	2.778e-05	 -179.74°	 -180.04°
    5   	5.000e+03	3.326e-04	1.900e-05	 -174.36°	 -174.66°
    6   	6.000e+03	3.495e-04	1.996e-05	 -179.44°	 -179.73°
    7   	7.000e+03	2.617e-04	1.494e-05	 -165.08°	 -165.38°
    8   	8.000e+03	2.436e-04	1.391e-05	  179.85°	  179.55°
    9   	9.000e+03	1.951e-04	1.114e-05	 -166.88°	 -167.18°
   10   	1.000e+04	1.716e-04	9.801e-06	  178.54°	  178.24°
   11   	1.100e+04	1.542e-04	8.808e-06	  167.24°	  166.94°
   12   	1.200e+04	1.604e-04	9.160e-06	  179.88°	  179.58°
   13   	1.300e+04	1.390e-04	7.940e-06	  165.26°	  164.96°
   14   	1.400e+04	1.588e-04	9.066e-06	 -178.41°	 -178.71°
   15   	1.500e+04	1.192e-04	6.810e-06	 -167.57°	 -167.87°
   16   	1.600e+04	1.179e-04	6.733e-06	 -179.80°	 -180.09°
   17   	1.700e+04	9.834e-05	5.616e-06	 -169.78°	 -170.08°
   18   	1.800e+04	7.969e-05	4.551e-06	  176.29°	  175.99°
   19   	1.900e+04	1.012e-04	5.777e-06	  154.56°	  154.26°
   20   	2.000e+04	8.850e-05	5.054e-06	  179.34°	  179.04°
   21   	2.100e+04	9.402e-05	5.369e-06	  159.51°	  159.22°
   22   	2.200e+04	1.023e-04	5.842e-06	 -177.01°	 -177.31°
   23   	2.300e+04	7.692e-05	4.392e-06	 -159.96°	 -160.26°
   24   	2.400e+04	7.405e-05	4.229e-06	 -179.29°	 -179.59°
   25   	2.500e+04	6.360e-05	3.632e-06	 -165.67°	 -165.97°
   26   	2.600e+04	4.525e-05	2.584e-06	  172.04°	  171.74°
   27   	2.700e+04	7.721e-05	4.409e-06	  150.88°	  150.58°
   28   	2.800e+04	5.942e-05	3.393e-06	  178.39°	  178.09°
   29   	2.900e+04	7.007e-05	4.001e-06	  161.44°	  161.15°
   30   	3.000e+04	7.715e-05	4.406e-06	 -175.43°	 -175.73°
Total Harmonic Distortion: 0.008215%(0.048813%)

.step vpin=0.75
N-Period=4
Fourier components of V(out)
DC component:-0.115474

Harmonic	Frequency	 Fourier 	Normalized	 Phase  	Normalized
 Number 	  [Hz]   	Component	 Component	[degree]	Phase [deg]
    1   	1.000e+03	1.812e+01	1.000e+00	    0.30°	    0.00°
    2   	2.000e+03	9.988e-04	5.514e-05	  173.92°	  173.63°
    3   	3.000e+03	5.293e-04	2.922e-05	 -173.72°	 -174.02°
    4   	4.000e+03	4.993e-04	2.757e-05	 -179.78°	 -180.08°
    5   	5.000e+03	3.416e-04	1.886e-05	 -174.82°	 -175.11°
    6   	6.000e+03	3.605e-04	1.990e-05	 -179.46°	 -179.75°
    7   	7.000e+03	2.674e-04	1.476e-05	 -166.64°	 -166.93°
    8   	8.000e+03	2.582e-04	1.425e-05	 -179.90°	 -180.20°
    9   	9.000e+03	2.061e-04	1.137e-05	 -164.33°	 -164.62°
   10   	1.000e+04	1.797e-04	9.920e-06	  178.66°	  178.36°
   11   	1.100e+04	1.568e-04	8.653e-06	  172.98°	  172.69°
   12   	1.200e+04	1.575e-04	8.693e-06	  179.24°	  178.95°
   13   	1.300e+04	1.452e-04	8.015e-06	  161.29°	  161.00°
   14   	1.400e+04	1.613e-04	8.902e-06	 -178.66°	 -178.96°
   15   	1.500e+04	1.223e-04	6.752e-06	 -176.15°	 -176.44°
   16   	1.600e+04	1.339e-04	7.390e-06	 -178.79°	 -179.08°
   17   	1.700e+04	1.061e-04	5.860e-06	 -162.35°	 -162.65°
   18   	1.800e+04	8.818e-05	4.868e-06	  177.44°	  177.15°
   19   	1.900e+04	9.364e-05	5.169e-06	  166.65°	  166.35°
   20   	2.000e+04	7.877e-05	4.348e-06	  176.94°	  176.64°
   21   	2.100e+04	1.037e-04	5.722e-06	  151.12°	  150.83°
   22   	2.200e+04	9.899e-05	5.464e-06	 -178.10°	 -178.40°
   23   	2.300e+04	8.036e-05	4.436e-06	 -179.90°	 -180.20°
   24   	2.400e+04	9.234e-05	5.097e-06	 -177.00°	 -177.30°
   25   	2.500e+04	7.201e-05	3.975e-06	 -152.21°	 -152.51°
   26   	2.600e+04	5.602e-05	3.092e-06	  176.69°	  176.39°
   27   	2.700e+04	6.294e-05	3.474e-06	  171.45°	  171.16°
   28   	2.800e+04	4.545e-05	2.509e-06	  172.04°	  171.74°
   29   	2.900e+04	8.142e-05	4.494e-06	  148.55°	  148.26°
   30   	3.000e+04	6.861e-05	3.787e-06	 -178.36°	 -178.66°
Total Harmonic Distortion: 0.008209%(0.048813%)

.step vpin=0.775
N-Period=4
Fourier components of V(out)
DC component:-0.119313

Harmonic	Frequency	 Fourier 	Normalized	 Phase  	Normalized
 Number 	  [Hz]   	Component	 Component	[degree]	Phase [deg]
    1   	1.000e+03	1.872e+01	1.000e+00	    0.30°	    0.00°
    2   	2.000e+03	1.033e-03	5.520e-05	  173.72°	  173.42°
    3   	3.000e+03	5.475e-04	2.925e-05	 -173.62°	 -173.91°
    4   	4.000e+03	5.125e-04	2.738e-05	 -179.81°	 -180.11°
    5   	5.000e+03	3.512e-04	1.876e-05	 -175.03°	 -175.33°
    6   	6.000e+03	3.709e-04	1.981e-05	 -179.50°	 -179.80°
    7   	7.000e+03	2.729e-04	1.458e-05	 -168.23°	 -168.53°
    8   	8.000e+03	2.718e-04	1.452e-05	 -179.70°	 -180.00°
    9   	9.000e+03	2.159e-04	1.153e-05	 -163.01°	 -163.31°
   10   	1.000e+04	1.897e-04	1.013e-05	  178.90°	  178.60°
   11   	1.100e+04	1.613e-04	8.615e-06	  179.04°	  178.74°
   12   	1.200e+04	1.565e-04	8.361e-06	  178.74°	  178.45°
   13   	1.300e+04	1.491e-04	7.963e-06	  160.46°	  160.16°
   14   	1.400e+04	1.602e-04	8.559e-06	 -179.14°	 -179.43°
   15   	1.500e+04	1.274e-04	6.805e-06	  174.83°	  174.53°
   16   	1.600e+04	1.460e-04	7.799e-06	 -178.29°	 -178.59°
   17   	1.700e+04	1.119e-04	5.980e-06	 -162.18°	 -162.47°
   18   	1.800e+04	1.018e-04	5.439e-06	  179.12°	  178.82°
   19   	1.900e+04	9.197e-05	4.913e-06	 -178.03°	 -178.32°
   20   	2.000e+04	7.556e-05	4.037e-06	  175.70°	  175.40°
   21   	2.100e+04	1.031e-04	5.506e-06	  151.89°	  151.59°
   22   	2.200e+04	8.909e-05	4.759e-06	  179.80°	  179.50°
   23   	2.300e+04	9.152e-05	4.889e-06	  161.62°	  161.33°
   24   	2.400e+04	1.006e-04	5.376e-06	 -176.68°	 -176.98°
   25   	2.500e+04	7.514e-05	4.014e-06	 -159.36°	 -159.66°
   26   	2.600e+04	7.484e-05	3.998e-06	 -178.75°	 -179.05°
   27   	2.700e+04	6.306e-05	3.369e-06	 -160.66°	 -160.95°
   28   	2.800e+04	4.508e-05	2.408e-06	  171.87°	  171.58°
   29   	2.900e+04	7.263e-05	3.880e-06	  154.60°	  154.30°
   30   	3.000e+04	5.209e-05	2.783e-06	  175.49°	  175.19°
Total Harmonic Distortion: 0.008202%(0.048813%)

.step vpin=0.8
N-Period=4
Fourier components of V(out)
DC component:-0.123152

Harmonic	Frequency	 Fourier 	Normalized	 Phase  	Normalized
 Number 	  [Hz]   	Component	 Component	[degree]	Phase [deg]
    1   	1.000e+03	1.932e+01	1.000e+00	    0.30°	    0.00°
    2   	2.000e+03	1.068e-03	5.527e-05	  173.50°	  173.21°
    3   	3.000e+03	5.654e-04	2.926e-05	 -173.57°	 -173.87°
    4   	4.000e+03	5.258e-04	2.721e-05	 -179.83°	 -180.13°
    5   	5.000e+03	3.612e-04	1.869e-05	 -175.05°	 -175.35°
    6   	6.000e+03	3.807e-04	1.970e-05	 -179.56°	 -179.86°
    7   	7.000e+03	2.784e-04	1.441e-05	 -169.76°	 -170.05°
    8   	8.000e+03	2.845e-04	1.472e-05	 -179.56°	 -179.86°
    9   	9.000e+03	2.244e-04	1.161e-05	 -162.60°	 -162.90°
   10   	1.000e+04	2.009e-04	1.040e-05	  179.19°	  178.89°
   11   	1.100e+04	1.678e-04	8.684e-06	 -175.45°	 -175.75°
   12   	1.200e+04	1.579e-04	8.171e-06	  178.44°	  178.14°
   13   	1.300e+04	1.509e-04	7.807e-06	  162.07°	  161.77°
   14   	1.400e+04	1.575e-04	8.151e-06	 -179.74°	 -180.04°
   15   	1.500e+04	1.341e-04	6.940e-06	  167.50°	  167.20°
   16   	1.600e+04	1.535e-04	7.944e-06	 -178.19°	 -178.49°
   17   	1.700e+04	1.154e-04	5.970e-06	 -166.95°	 -167.25°
   18   	1.800e+04	1.170e-04	6.053e-06	 -179.48°	 -179.78°
   19   	1.900e+04	9.702e-05	5.021e-06	 -166.44°	 -166.74°
   20   	2.000e+04	7.957e-05	4.118e-06	  176.20°	  175.90°
   21   	2.100e+04	9.588e-05	4.962e-06	  159.81°	  159.52°
   22   	2.200e+04	7.929e-05	4.103e-06	  177.32°	  177.02°
   23   	2.300e+04	1.021e-04	5.283e-06	  152.24°	  151.95°
   24   	2.400e+04	9.851e-05	5.098e-06	 -177.69°	 -177.98°
   25   	2.500e+04	7.858e-05	4.066e-06	 -177.91°	 -178.21°
   26   	2.600e+04	9.124e-05	4.722e-06	 -176.66°	 -176.96°
   27   	2.700e+04	7.074e-05	3.661e-06	 -150.93°	 -151.23°
   28   	2.800e+04	5.729e-05	2.965e-06	  177.32°	  177.03°
   29   	2.900e+04	6.015e-05	3.113e-06	  177.82°	  177.53°
   30   	3.000e+04	4.268e-05	2.209e-06	  170.09°	  169.79°
Total Harmonic Distortion: 0.008199%(0.048813%)

.step vpin=0.825
N-Period=4
Fourier components of V(out)
DC component:-0.126991

Harmonic	Frequency	 Fourier 	Normalized	 Phase  	Normalized
 Number 	  [Hz]   	Component	 Component	[degree]	Phase [deg]
    1   	1.000e+03	1.993e+01	1.000e+00	    0.30°	    0.00°
    2   	2.000e+03	1.103e-03	5.534e-05	  173.29°	  172.99°
    3   	3.000e+03	5.830e-04	2.925e-05	 -173.58°	 -173.88°
    4   	4.000e+03	5.392e-04	2.706e-05	 -179.83°	 -180.13°
    5   	5.000e+03	3.717e-04	1.865e-05	 -174.92°	 -175.22°
    6   	6.000e+03	3.901e-04	1.958e-05	 -179.63°	 -179.93°
    7   	7.000e+03	2.840e-04	1.425e-05	 -171.15°	 -171.45°
    8   	8.000e+03	2.962e-04	1.486e-05	 -179.46°	 -179.76°
    9   	9.000e+03	2.318e-04	1.163e-05	 -162.84°	 -163.14°
   10   	1.000e+04	2.127e-04	1.067e-05	  179.49°	  179.19°
   11   	1.100e+04	1.757e-04	8.817e-06	 -170.93°	 -171.23°
   12   	1.200e+04	1.615e-04	8.106e-06	  178.33°	  178.03°
   13   	1.300e+04	1.517e-04	7.611e-06	  165.46°	  165.16°
   14   	1.400e+04	1.546e-04	7.757e-06	  179.63°	  179.33°
   15   	1.500e+04	1.407e-04	7.061e-06	  162.67°	  162.37°
   16   	1.600e+04	1.569e-04	7.874e-06	 -178.39°	 -178.69°
   17   	1.700e+04	1.186e-04	5.953e-06	 -174.43°	 -174.73°
   18   	1.800e+04	1.308e-04	6.564e-06	 -178.57°	 -178.87°
   19   	1.900e+04	1.037e-04	5.204e-06	 -161.32°	 -161.62°
   20   	2.000e+04	8.921e-05	4.477e-06	  177.75°	  177.45°
   21   	2.100e+04	9.010e-05	4.521e-06	  172.78°	  172.48°
   22   	2.200e+04	7.387e-05	3.707e-06	  175.50°	  175.20°
   23   	2.300e+04	1.045e-04	5.242e-06	  150.63°	  150.33°
   24   	2.400e+04	9.015e-05	4.524e-06	 -179.64°	 -179.94°
   25   	2.500e+04	8.884e-05	4.458e-06	  164.31°	  164.01°
   26   	2.600e+04	9.920e-05	4.978e-06	 -176.35°	 -176.64°
   27   	2.700e+04	7.359e-05	3.693e-06	 -158.29°	 -158.59°
   28   	2.800e+04	7.494e-05	3.761e-06	 -178.36°	 -178.65°
   29   	2.900e+04	6.242e-05	3.133e-06	 -157.46°	 -157.76°
   30   	3.000e+04	4.544e-05	2.280e-06	  172.03°	  171.73°
Total Harmonic Distortion: 0.008200%(0.048813%)

.step vpin=0.85
N-Period=4
Fourier components of V(out)
DC component:-0.130831

Harmonic	Frequency	 Fourier 	Normalized	 Phase  	Normalized
 Number 	  [Hz]   	Component	 Component	[degree]	Phase [deg]
    1   	1.000e+03	2.053e+01	1.000e+00	    0.30°	    0.00°
    2   	2.000e+03	1.138e-03	5.543e-05	  173.07°	  172.77°
    3   	3.000e+03	6.002e-04	2.923e-05	 -173.64°	 -173.94°
    4   	4.000e+03	5.528e-04	2.692e-05	 -179.82°	 -180.12°
    5   	5.000e+03	3.825e-04	1.863e-05	 -174.69°	 -174.99°
    6   	6.000e+03	3.994e-04	1.945e-05	 -179.71°	 -180.01°
    7   	7.000e+03	2.899e-04	1.412e-05	 -172.38°	 -172.67°
    8   	8.000e+03	3.070e-04	1.495e-05	 -179.40°	 -179.70°
    9   	9.000e+03	2.382e-04	1.160e-05	 -163.53°	 -163.83°
   10   	1.000e+04	2.246e-04	1.094e-05	  179.76°	  179.47°
   11   	1.100e+04	1.842e-04	8.973e-06	 -167.51°	 -167.81°
   12   	1.200e+04	1.671e-04	8.139e-06	  178.39°	  178.09°
   13   	1.300e+04	1.527e-04	7.438e-06	  169.99°	  169.69°
   14   	1.400e+04	1.524e-04	7.424e-06	  179.05°	  178.75°
   15   	1.500e+04	1.458e-04	7.100e-06	  160.26°	  159.96°
   16   	1.600e+04	1.572e-04	7.659e-06	 -178.80°	 -179.09°
   17   	1.700e+04	1.234e-04	6.009e-06	  177.46°	  177.16°
   18   	1.800e+04	1.417e-04	6.901e-06	 -178.10°	 -178.40°
   19   	1.900e+04	1.087e-04	5.296e-06	 -161.70°	 -162.00°
   20   	2.000e+04	1.020e-04	4.968e-06	  179.41°	  179.11°
   21   	2.100e+04	9.049e-05	4.407e-06	 -173.86°	 -174.15°
   22   	2.200e+04	7.429e-05	3.619e-06	  175.20°	  174.90°
   23   	2.300e+04	9.925e-05	4.834e-06	  155.10°	  154.80°
   24   	2.400e+04	8.065e-05	3.928e-06	  177.89°	  177.59°
   25   	2.500e+04	9.996e-05	4.869e-06	  154.00°	  153.71°
   26   	2.600e+04	9.825e-05	4.785e-06	 -177.24°	 -177.54°
   27   	2.700e+04	7.684e-05	3.743e-06	 -175.45°	 -175.75°
   28   	2.800e+04	9.002e-05	4.384e-06	 -176.37°	 -176.67°
   29   	2.900e+04	6.941e-05	3.381e-06	 -149.90°	 -150.20°
   30   	3.000e+04	5.810e-05	2.830e-06	  177.80°	  177.50°
Total Harmonic Distortion: 0.008203%(0.048813%)

.step vpin=0.875
N-Period=4
Fourier components of V(out)
DC component:-0.134671

Harmonic	Frequency	 Fourier 	Normalized	 Phase  	Normalized
 Number 	  [Hz]   	Component	 Component	[degree]	Phase [deg]
    1   	1.000e+03	2.113e+01	1.000e+00	    0.30°	    0.00°
    2   	2.000e+03	1.173e-03	5.552e-05	  172.84°	  172.54°
    3   	3.000e+03	6.171e-04	2.920e-05	 -173.76°	 -174.06°
    4   	4.000e+03	5.664e-04	2.680e-05	 -179.79°	 -180.09°
    5   	5.000e+03	3.937e-04	1.863e-05	 -174.37°	 -174.67°
    6   	6.000e+03	4.085e-04	1.933e-05	 -179.79°	 -180.08°
    7   	7.000e+03	2.960e-04	1.401e-05	 -173.42°	 -173.72°
    8   	8.000e+03	3.170e-04	1.500e-05	 -179.37°	 -179.67°
    9   	9.000e+03	2.440e-04	1.155e-05	 -164.51°	 -164.80°
   10   	1.000e+04	2.364e-04	1.119e-05	 -180.00°	 -180.30°
   11   	1.100e+04	1.927e-04	9.118e-06	 -165.13°	 -165.42°
   12   	1.200e+04	1.743e-04	8.246e-06	  178.57°	  178.27°
   13   	1.300e+04	1.549e-04	7.328e-06	  175.04°	  174.74°
   14   	1.400e+04	1.516e-04	7.174e-06	  178.59°	  178.29°
   15   	1.500e+04	1.488e-04	7.043e-06	  159.92°	  159.62°
   16   	1.600e+04	1.557e-04	7.365e-06	 -179.34°	 -179.63°
   17   	1.700e+04	1.296e-04	6.133e-06	  170.33°	  170.03°
   18   	1.800e+04	1.491e-04	7.055e-06	 -177.98°	 -178.28°
   19   	1.900e+04	1.122e-04	5.308e-06	 -165.95°	 -166.25°
   20   	2.000e+04	1.155e-04	5.465e-06	 -179.28°	 -179.58°
   21   	2.100e+04	9.550e-05	4.519e-06	 -164.62°	 -164.92°
   22   	2.200e+04	8.011e-05	3.791e-06	  176.30°	  176.00°
   23   	2.300e+04	9.186e-05	4.346e-06	  164.68°	  164.38°
   24   	2.400e+04	7.384e-05	3.494e-06	  175.68°	  175.38°
   25   	2.500e+04	1.049e-04	4.963e-06	  150.51°	  150.21°
   26   	2.600e+04	9.133e-05	4.321e-06	 -179.04°	 -179.33°
   27   	2.700e+04	8.613e-05	4.075e-06	  167.34°	  167.04°
   28   	2.800e+04	9.791e-05	4.633e-06	 -176.02°	 -176.32°
   29   	2.900e+04	7.219e-05	3.416e-06	 -156.97°	 -157.26°
   30   	3.000e+04	7.467e-05	3.533e-06	 -178.07°	 -178.36°
Total Harmonic Distortion: 0.008204%(0.048813%)

.step vpin=0.9
N-Period=4
Fourier components of V(out)
DC component:-0.138512

Harmonic	Frequency	 Fourier 	Normalized	 Phase  	Normalized
 Number 	  [Hz]   	Component	 Component	[degree]	Phase [deg]
    1   	1.000e+03	2.174e+01	1.000e+00	    0.30°	    0.00°
    2   	2.000e+03	1.209e-03	5.563e-05	  172.61°	  172.31°
    3   	3.000e+03	6.335e-04	2.914e-05	 -173.93°	 -174.23°
    4   	4.000e+03	5.800e-04	2.668e-05	 -179.75°	 -180.05°
    5   	5.000e+03	4.051e-04	1.864e-05	 -173.99°	 -174.29°
    6   	6.000e+03	4.176e-04	1.921e-05	 -179.87°	 -180.16°
    7   	7.000e+03	3.024e-04	1.391e-05	 -174.29°	 -174.59°
    8   	8.000e+03	3.263e-04	1.501e-05	 -179.37°	 -179.66°
    9   	9.000e+03	2.494e-04	1.147e-05	 -165.65°	 -165.95°
   10   	1.000e+04	2.478e-04	1.140e-05	 -179.80°	 -180.10°
   11   	1.100e+04	2.008e-04	9.236e-06	 -163.62°	 -163.91°
   12   	1.200e+04	1.826e-04	8.401e-06	  178.82°	  178.52°
   13   	1.300e+04	1.585e-04	7.291e-06	 -179.96°	 -180.26°
   14   	1.400e+04	1.524e-04	7.011e-06	  178.28°	  177.98°
   15   	1.500e+04	1.502e-04	6.911e-06	  161.25°	  160.95°
   16   	1.600e+04	1.533e-04	7.050e-06	 -179.94°	 -180.24°
   17   	1.700e+04	1.362e-04	6.267e-06	  164.97°	  164.67°
   18   	1.800e+04	1.532e-04	7.047e-06	 -178.12°	 -178.42°
   19   	1.900e+04	1.155e-04	5.312e-06	 -172.50°	 -172.79°
   20   	2.000e+04	1.279e-04	5.882e-06	 -178.41°	 -178.71°
   21   	2.100e+04	1.013e-04	4.662e-06	 -160.69°	 -160.99°
   22   	2.200e+04	8.987e-05	4.134e-06	  177.99°	  177.70°
   23   	2.300e+04	8.789e-05	4.043e-06	  177.20°	  176.91°
   24   	2.400e+04	7.157e-05	3.292e-06	  174.61°	  174.31°
   25   	2.500e+04	1.024e-04	4.710e-06	  152.29°	  152.00°
   26   	2.600e+04	8.241e-05	3.791e-06	  178.58°	  178.28°
   27   	2.700e+04	9.739e-05	4.480e-06	  156.24°	  155.95°
   28   	2.800e+04	9.802e-05	4.509e-06	 -176.79°	 -177.09°
   29   	2.900e+04	7.520e-05	3.459e-06	 -172.79°	 -173.08°
   30   	3.000e+04	8.878e-05	4.084e-06	 -176.13°	 -176.42°
Total Harmonic Distortion: 0.008204%(0.048813%)

.step vpin=0.925
N-Period=4
Fourier components of V(out)
DC component:-0.142353

Harmonic	Frequency	 Fourier 	Normalized	 Phase  	Normalized
 Number 	  [Hz]   	Component	 Component	[degree]	Phase [deg]
    1   	1.000e+03	2.234e+01	1.000e+00	    0.30°	    0.00°
    2   	2.000e+03	1.245e-03	5.574e-05	  172.37°	  172.07°
    3   	3.000e+03	6.496e-04	2.908e-05	 -174.16°	 -174.45°
    4   	4.000e+03	5.936e-04	2.657e-05	 -179.70°	 -180.00°
    5   	5.000e+03	4.168e-04	1.866e-05	 -173.57°	 -173.87°
    6   	6.000e+03	4.268e-04	1.910e-05	 -179.95°	 -180.24°
    7   	7.000e+03	3.089e-04	1.383e-05	 -174.99°	 -175.29°
    8   	8.000e+03	3.350e-04	1.499e-05	 -179.38°	 -179.68°
    9   	9.000e+03	2.546e-04	1.140e-05	 -166.88°	 -167.18°
   10   	1.000e+04	2.588e-04	1.158e-05	 -179.64°	 -179.94°
   11   	1.100e+04	2.082e-04	9.320e-06	 -162.82°	 -163.11°
   12   	1.200e+04	1.918e-04	8.584e-06	  179.10°	  178.80°
   13   	1.300e+04	1.635e-04	7.319e-06	 -175.41°	 -175.71°
   14   	1.400e+04	1.548e-04	6.929e-06	  178.14°	  177.84°
   15   	1.500e+04	1.506e-04	6.742e-06	  163.88°	  163.58°
   16   	1.600e+04	1.508e-04	6.752e-06	  179.45°	  179.16°
   17   	1.700e+04	1.421e-04	6.359e-06	  161.52°	  161.22°
   18   	1.800e+04	1.546e-04	6.919e-06	 -178.46°	 -178.76°
   19   	1.900e+04	1.199e-04	5.365e-06	 -179.82°	 -180.12°
   20   	2.000e+04	1.380e-04	6.174e-06	 -177.94°	 -178.24°
   21   	2.100e+04	1.060e-04	4.743e-06	 -161.18°	 -161.48°
   22   	2.200e+04	1.017e-04	4.554e-06	  179.61°	  179.31°
   23   	2.300e+04	8.927e-05	3.996e-06	 -171.20°	 -171.50°
   24   	2.400e+04	7.411e-05	3.317e-06	  175.02°	  174.72°
   25   	2.500e+04	9.550e-05	4.275e-06	  158.65°	  158.36°
   26   	2.600e+04	7.486e-05	3.350e-06	  176.16°	  175.87°
   27   	2.700e+04	1.043e-04	4.670e-06	  151.24°	  150.94°
   28   	2.800e+04	9.244e-05	4.137e-06	 -178.42°	 -178.72°
   29   	2.900e+04	8.348e-05	3.736e-06	  170.55°	  170.25°
   30   	3.000e+04	9.670e-05	4.328e-06	 -175.71°	 -176.01°
Total Harmonic Distortion: 0.008204%(0.048813%)

.step vpin=0.95
N-Period=4
Fourier components of V(out)
DC component:-0.146194

Harmonic	Frequency	 Fourier 	Normalized	 Phase  	Normalized
 Number 	  [Hz]   	Component	 Component	[degree]	Phase [deg]
    1   	1.000e+03	2.295e+01	1.000e+00	    0.30°	    0.00°
    2   	2.000e+03	1.282e-03	5.586e-05	  172.12°	  171.82°
    3   	3.000e+03	6.652e-04	2.899e-05	 -174.43°	 -174.73°
    4   	4.000e+03	6.071e-04	2.646e-05	 -179.64°	 -179.94°
    5   	5.000e+03	4.288e-04	1.869e-05	 -173.12°	 -173.42°
    6   	6.000e+03	4.361e-04	1.900e-05	  179.98°	  179.68°
    7   	7.000e+03	3.156e-04	1.376e-05	 -175.54°	 -175.84°
    8   	8.000e+03	3.432e-04	1.496e-05	 -179.41°	 -179.71°
    9   	9.000e+03	2.597e-04	1.132e-05	 -168.13°	 -168.42°
   10   	1.000e+04	2.692e-04	1.173e-05	 -179.52°	 -179.82°
   11   	1.100e+04	2.150e-04	9.371e-06	 -162.57°	 -162.87°
   12   	1.200e+04	2.014e-04	8.778e-06	  179.38°	  179.08°
   13   	1.300e+04	1.696e-04	7.389e-06	 -171.55°	 -171.85°
   14   	1.400e+04	1.587e-04	6.918e-06	  178.14°	  177.85°
   15   	1.500e+04	1.509e-04	6.575e-06	  167.47°	  167.17°
   16   	1.600e+04	1.490e-04	6.496e-06	  178.91°	  178.61°
   17   	1.700e+04	1.464e-04	6.379e-06	  159.81°	  159.51°
   18   	1.800e+04	1.541e-04	6.714e-06	 -178.94°	 -179.24°
   19   	1.900e+04	1.256e-04	5.472e-06	  173.33°	  173.04°
   20   	2.000e+04	1.453e-04	6.331e-06	 -177.79°	 -178.09°
   21   	2.100e+04	1.094e-04	4.768e-06	 -164.89°	 -165.18°
   22   	2.200e+04	1.140e-04	4.967e-06	 -179.14°	 -179.44°
   23   	2.300e+04	9.397e-05	4.095e-06	 -163.51°	 -163.81°
   24   	2.400e+04	8.076e-05	3.520e-06	  176.45°	  176.15°
   25   	2.500e+04	8.897e-05	3.877e-06	  168.77°	  168.47°
   26   	2.600e+04	7.067e-05	3.080e-06	  174.48°	  174.18°
   27   	2.700e+04	1.046e-04	4.558e-06	  150.98°	  150.68°
   28   	2.800e+04	8.429e-05	3.673e-06	  179.33°	  179.03°
   29   	2.900e+04	9.454e-05	4.120e-06	  158.83°	  158.53°
   30   	3.000e+04	9.775e-05	4.260e-06	 -176.36°	 -176.66°
Total Harmonic Distortion: 0.008203%(0.048813%)

.step vpin=0.975
N-Period=4
Fourier components of V(out)
DC component:-0.150036

Harmonic	Frequency	 Fourier 	Normalized	 Phase  	Normalized
 Number 	  [Hz]   	Component	 Component	[degree]	Phase [deg]
    1   	1.000e+03	2.355e+01	1.000e+00	    0.30°	    0.00°
    2   	2.000e+03	1.319e-03	5.599e-05	  171.87°	  171.57°
    3   	3.000e+03	6.804e-04	2.889e-05	 -174.76°	 -175.05°
    4   	4.000e+03	6.204e-04	2.635e-05	 -179.56°	 -179.86°
    5   	5.000e+03	4.410e-04	1.873e-05	 -172.64°	 -172.94°
    6   	6.000e+03	4.455e-04	1.892e-05	  179.90°	  179.60°
    7   	7.000e+03	3.225e-04	1.370e-05	 -175.96°	 -176.25°
    8   	8.000e+03	3.509e-04	1.490e-05	 -179.45°	 -179.74°
    9   	9.000e+03	2.647e-04	1.124e-05	 -169.33°	 -169.63°
   10   	1.000e+04	2.790e-04	1.185e-05	 -179.43°	 -179.73°
   11   	1.100e+04	2.212e-04	9.393e-06	 -162.76°	 -163.06°
   12   	1.200e+04	2.113e-04	8.971e-06	  179.64°	  179.35°
   13   	1.300e+04	1.762e-04	7.481e-06	 -168.45°	 -168.75°
   14   	1.400e+04	1.640e-04	6.962e-06	  178.26°	  177.97°
   15   	1.500e+04	1.516e-04	6.439e-06	  171.63°	  171.34°
   16   	1.600e+04	1.482e-04	6.294e-06	  178.47°	  178.17°
   17   	1.700e+04	1.490e-04	6.327e-06	  159.59°	  159.29°
   18   	1.800e+04	1.524e-04	6.470e-06	 -179.50°	 -179.80°
   19   	1.900e+04	1.319e-04	5.603e-06	  167.72°	  167.42°
   20   	2.000e+04	1.499e-04	6.363e-06	 -177.88°	 -178.18°
   21   	2.100e+04	1.127e-04	4.785e-06	 -170.63°	 -170.92°
   22   	2.200e+04	1.253e-04	5.319e-06	 -178.30°	 -178.60°
   23   	2.300e+04	9.918e-05	4.212e-06	 -160.25°	 -160.55°
   24   	2.400e+04	9.030e-05	3.834e-06	  178.19°	  177.89°
   25   	2.500e+04	8.635e-05	3.667e-06	 -179.55°	 -179.84°
   26   	2.600e+04	7.058e-05	2.997e-06	  174.11°	  173.82°
   27   	2.700e+04	9.947e-05	4.224e-06	  154.71°	  154.41°
   28   	2.800e+04	7.647e-05	3.247e-06	  176.85°	  176.55°
   29   	2.900e+04	1.029e-04	4.371e-06	  152.61°	  152.31°
   30   	3.000e+04	9.339e-05	3.966e-06	 -177.83°	 -178.12°
Total Harmonic Distortion: 0.008201%(0.048813%)

.step vpin=1
N-Period=4
Fourier components of V(out)
DC component:-0.153878

Harmonic	Frequency	 Fourier 	Normalized	 Phase  	Normalized
 Number 	  [Hz]   	Component	 Component	[degree]	Phase [deg]
    1   	1.000e+03	2.415e+01	1.000e+00	    0.30°	    0.00°
    2   	2.000e+03	1.356e-03	5.613e-05	  171.62°	  171.32°
    3   	3.000e+03	6.951e-04	2.878e-05	 -175.11°	 -175.40°
    4   	4.000e+03	6.336e-04	2.623e-05	 -179.44°	 -179.74°
    5   	5.000e+03	4.535e-04	1.878e-05	 -172.11°	 -172.40°
    6   	6.000e+03	4.551e-04	1.884e-05	  179.87°	  179.57°
    7   	7.000e+03	3.296e-04	1.364e-05	 -176.21°	 -176.50°
    8   	8.000e+03	3.582e-04	1.483e-05	 -179.44°	 -179.74°
    9   	9.000e+03	2.699e-04	1.117e-05	 -170.39°	 -170.69°
   10   	1.000e+04	2.883e-04	1.194e-05	 -179.31°	 -179.60°
   11   	1.100e+04	2.270e-04	9.397e-06	 -163.20°	 -163.49°
   12   	1.200e+04	2.211e-04	9.156e-06	  179.96°	  179.67°
   13   	1.300e+04	1.831e-04	7.581e-06	 -166.01°	 -166.31°
   14   	1.400e+04	1.702e-04	7.048e-06	  178.58°	  178.28°
   15   	1.500e+04	1.534e-04	6.349e-06	  176.14°	  175.84°
   16   	1.600e+04	1.486e-04	6.151e-06	  178.28°	  177.98°
   17   	1.700e+04	1.501e-04	6.213e-06	  160.74°	  160.44°
   18   	1.800e+04	1.502e-04	6.219e-06	 -179.97°	 -180.27°
   19   	1.900e+04	1.380e-04	5.713e-06	  163.73°	  163.43°
   20   	2.000e+04	1.521e-04	6.296e-06	 -178.04°	 -178.34°
   21   	2.100e+04	1.168e-04	4.835e-06	 -177.09°	 -177.38°
   22   	2.200e+04	1.347e-04	5.577e-06	 -177.69°	 -177.98°
   23   	2.300e+04	1.036e-04	4.289e-06	 -160.52°	 -160.82°
   24   	2.400e+04	1.013e-04	4.195e-06	  179.93°	  179.64°
   25   	2.500e+04	8.823e-05	3.653e-06	 -169.19°	 -169.49°
   26   	2.600e+04	7.436e-05	3.079e-06	  175.26°	  174.97°
   27   	2.700e+04	9.224e-05	3.819e-06	  162.26°	  161.96°
   28   	2.800e+04	7.098e-05	2.939e-06	  175.02°	  174.72°
   29   	2.900e+04	1.055e-04	4.369e-06	  150.90°	  150.60°
   30   	3.000e+04	8.610e-05	3.565e-06	 -179.69°	 -179.99°
Total Harmonic Distortion: 0.008200%(0.048814%)

.step vpin=1.025
N-Period=4
Fourier components of V(out)
DC component:-0.157721

Harmonic	Frequency	 Fourier 	Normalized	 Phase  	Normalized
 Number 	  [Hz]   	Component	 Component	[degree]	Phase [deg]
    1   	1.000e+03	2.476e+01	1.000e+00	    0.30°	    0.00°
    2   	2.000e+03	1.394e-03	5.629e-05	  171.33°	  171.03°
    3   	3.000e+03	7.093e-04	2.865e-05	 -175.57°	 -175.87°
    4   	4.000e+03	6.464e-04	2.611e-05	 -179.37°	 -179.67°
    5   	5.000e+03	4.661e-04	1.883e-05	 -171.63°	 -171.93°
    6   	6.000e+03	4.651e-04	1.879e-05	  179.76°	  179.46°
    7   	7.000e+03	3.367e-04	1.360e-05	 -176.49°	 -176.78°
    8   	8.000e+03	3.652e-04	1.475e-05	 -179.54°	 -179.84°
    9   	9.000e+03	2.750e-04	1.111e-05	 -171.49°	 -171.78°
   10   	1.000e+04	2.971e-04	1.200e-05	 -179.34°	 -179.63°
   11   	1.100e+04	2.321e-04	9.376e-06	 -164.02°	 -164.31°
   12   	1.200e+04	2.309e-04	9.326e-06	 -179.92°	 -180.22°
   13   	1.300e+04	1.898e-04	7.666e-06	 -164.44°	 -164.74°
   14   	1.400e+04	1.774e-04	7.165e-06	  178.71°	  178.42°
   15   	1.500e+04	1.562e-04	6.311e-06	 -179.70°	 -180.00°
   16   	1.600e+04	1.501e-04	6.065e-06	  177.98°	  177.68°
   17   	1.700e+04	1.504e-04	6.075e-06	  162.67°	  162.37°
   18   	1.800e+04	1.481e-04	5.984e-06	  179.33°	  179.04°
   19   	1.900e+04	1.432e-04	5.786e-06	  160.94°	  160.65°
   20   	2.000e+04	1.524e-04	6.157e-06	 -178.57°	 -178.87°
   21   	2.100e+04	1.219e-04	4.925e-06	  176.26°	  175.97°
   22   	2.200e+04	1.419e-04	5.731e-06	 -177.64°	 -177.94°
   23   	2.300e+04	1.069e-04	4.318e-06	 -163.89°	 -164.19°
   24   	2.400e+04	1.125e-04	4.546e-06	 -179.06°	 -179.35°
   25   	2.500e+04	9.250e-05	3.736e-06	 -162.79°	 -163.08°
   26   	2.600e+04	8.139e-05	3.287e-06	  176.61°	  176.31°
   27   	2.700e+04	8.686e-05	3.508e-06	  172.15°	  171.85°
   28   	2.800e+04	6.888e-05	2.782e-06	  173.68°	  173.38°
   29   	2.900e+04	1.028e-04	4.154e-06	  152.43°	  152.13°
   30   	3.000e+04	7.837e-05	3.165e-06	  177.66°	  177.36°
Total Harmonic Distortion: 0.008199%(0.048814%)

.step vpin=1.05
N-Period=4
Fourier components of V(out)
DC component:-0.161564

Harmonic	Frequency	 Fourier 	Normalized	 Phase  	Normalized
 Number 	  [Hz]   	Component	 Component	[degree]	Phase [deg]
    1   	1.000e+03	2.536e+01	1.000e+00	    0.30°	    0.00°
    2   	2.000e+03	1.432e-03	5.647e-05	  171.05°	  170.75°
    3   	3.000e+03	7.230e-04	2.851e-05	 -176.07°	 -176.37°
    4   	4.000e+03	6.589e-04	2.598e-05	 -179.25°	 -179.55°
    5   	5.000e+03	4.791e-04	1.889e-05	 -171.09°	 -171.38°
    6   	6.000e+03	4.754e-04	1.874e-05	  179.69°	  179.39°
    7   	7.000e+03	3.439e-04	1.356e-05	 -176.64°	 -176.94°
    8   	8.000e+03	3.719e-04	1.466e-05	 -179.60°	 -179.89°
    9   	9.000e+03	2.802e-04	1.105e-05	 -172.40°	 -172.69°
   10   	1.000e+04	3.055e-04	1.204e-05	 -179.32°	 -179.62°
   11   	1.100e+04	2.371e-04	9.348e-06	 -164.93°	 -165.22°
   12   	1.200e+04	2.403e-04	9.477e-06	 -179.75°	 -180.04°
   13   	1.300e+04	1.963e-04	7.740e-06	 -163.35°	 -163.64°
   14   	1.400e+04	1.851e-04	7.300e-06	  178.98°	  178.68°
   15   	1.500e+04	1.601e-04	6.314e-06	 -175.77°	 -176.07°
   16   	1.600e+04	1.529e-04	6.029e-06	  177.94°	  177.64°
   17   	1.700e+04	1.503e-04	5.925e-06	  165.52°	  165.22°
   18   	1.800e+04	1.466e-04	5.779e-06	  178.82°	  178.52°
   19   	1.900e+04	1.470e-04	5.797e-06	  159.60°	  159.31°
   20   	2.000e+04	1.515e-04	5.974e-06	 -179.08°	 -179.38°
   21   	2.100e+04	1.279e-04	5.044e-06	  170.59°	  170.29°
   22   	2.200e+04	1.468e-04	5.789e-06	 -177.68°	 -177.98°
   23   	2.300e+04	1.101e-04	4.343e-06	 -168.93°	 -169.23°
   24   	2.400e+04	1.229e-04	4.848e-06	 -178.24°	 -178.54°
   25   	2.500e+04	9.721e-05	3.833e-06	 -159.94°	 -160.23°
   26   	2.600e+04	9.058e-05	3.571e-06	  178.33°	  178.03°
   27   	2.700e+04	8.519e-05	3.359e-06	 -177.10°	 -177.40°
   28   	2.800e+04	7.027e-05	2.771e-06	  173.88°	  173.58°
   29   	2.900e+04	9.655e-05	3.807e-06	  157.34°	  157.05°
   30   	3.000e+04	7.212e-05	2.844e-06	  175.34°	  175.04°
Total Harmonic Distortion: 0.008201%(0.048814%)



Measurement: vrms
  step	RMS(v(out))	FROM	TO
     1	0.427008	0.001	0.01
     2	0.854011	0.001	0.01
     3	1.28101	0.001	0.01
     4	1.70802	0.001	0.01
     5	2.13502	0.001	0.01
     6	2.56202	0.001	0.01
     7	2.98903	0.001	0.01
     8	3.41603	0.001	0.01
     9	3.84303	0.001	0.01
    10	4.27003	0.001	0.01
    11	4.69704	0.001	0.01
    12	5.12404	0.001	0.01
    13	5.55104	0.001	0.01
    14	5.97804	0.001	0.01
    15	6.40504	0.001	0.01
    16	6.83205	0.001	0.01
    17	7.25905	0.001	0.01
    18	7.68605	0.001	0.01
    19	8.11305	0.001	0.01
    20	8.54005	0.001	0.01
    21	8.96704	0.001	0.01
    22	9.39403	0.001	0.01
    23	9.82102	0.001	0.01
    24	10.248	0.001	0.01
    25	10.675	0.001	0.01
    26	11.102	0.001	0.01
    27	11.529	0.001	0.01
    28	11.956	0.001	0.01
    29	12.383	0.001	0.01
    30	12.81	0.001	0.01
    31	13.237	0.001	0.01
    32	13.664	0.001	0.01
    33	14.091	0.001	0.01
    34	14.518	0.001	0.01
    35	14.9449	0.001	0.01
    36	15.3719	0.001	0.01
    37	15.7989	0.001	0.01
    38	16.2259	0.001	0.01
    39	16.6529	0.001	0.01
    40	17.0799	0.001	0.00999998
    41	17.5069	0.001	0.01
    42	17.9339	0.001	0.01

Measurement: pout
  step	AVG(v(out)*i(rl))	FROM	TO
     1	0.0227919	0.001	0.01
     2	0.0911668	0.001	0.01
     3	0.205124	0.001	0.01
     4	0.364665	0.001	0.01
     5	0.569789	0.001	0.01
     6	0.820495	0.001	0.01
     7	1.11678	0.001	0.01
     8	1.45866	0.001	0.01
     9	1.84611	0.001	0.01
    10	2.27915	0.001	0.01
    11	2.75777	0.001	0.01
    12	3.28197	0.001	0.01
    13	3.85176	0.001	0.01
    14	4.46712	0.001	0.01
    15	5.12807	0.001	0.01
    16	5.83461	0.001	0.01
    17	6.58672	0.001	0.01
    18	7.38442	0.001	0.01
    19	8.2277	0.001	0.01
    20	9.11656	0.001	0.01
    21	10.051	0.001	0.01
    22	11.031	0.001	0.01
    23	12.0566	0.001	0.01
    24	13.1277	0.001	0.01
    25	14.2445	0.001	0.01
    26	15.4068	0.001	0.01
    27	16.6147	0.001	0.01
    28	17.8682	0.001	0.01
    29	19.1673	0.001	0.01
    30	20.512	0.001	0.01
    31	21.9022	0.001	0.01
    32	23.338	0.001	0.01
    33	24.8194	0.001	0.01
    34	26.3464	0.001	0.01
    35	27.9189	0.001	0.01
    36	29.5371	0.001	0.01
    37	31.2008	0.001	0.01
    38	32.9101	0.001	0.01
    39	34.665	0.001	0.01
    40	36.4655	0.001	0.00999998
    41	38.3114	0.001	0.01
    42	40.203	0.001	0.01

Measurement: vout_max
  step	MAX(v(out))	FROM	TO
     1	0.599876	0	0.01
     2	1.20018	0	0.01
     3	1.80048	0	0.01
     4	2.40079	0	0.01
     5	3.00109	0	0.01
     6	3.60139	0	0.01
     7	4.20169	0	0.01
     8	4.80199	0	0.01
     9	5.40229	0	0.01
    10	6.00259	0	0.01
    11	6.60289	0	0.01
    12	7.20319	0	0.01
    13	7.80349	0	0.01
    14	8.40378	0	0.01
    15	9.00408	0	0.01
    16	9.60438	0	0.01
    17	10.2047	0	0.01
    18	10.805	0	0.01
    19	11.4053	0	0.01
    20	12.0055	0	0.01
    21	12.6058	0	0.01
    22	13.206	0	0.01
    23	13.8063	0	0.01
    24	14.4066	0	0.01
    25	15.0069	0	0.01
    26	15.6072	0	0.01
    27	16.2075	0	0.01
    28	16.8077	0	0.01
    29	17.408	0	0.01
    30	18.0083	0	0.01
    31	18.6086	0	0.01
    32	19.2088	0	0.01
    33	19.8091	0	0.01
    34	20.4094	0	0.01
    35	21.0096	0	0.01
    36	21.6099	0	0.01
    37	22.2102	0	0.01
    38	22.8104	0	0.01
    39	23.4107	0	0.01
    40	24.011	0	0.00999998
    41	24.6112	0	0.01
    42	25.2115	0	0.01


Date: Mon Dec 16 00:04:56 2019
Total elapsed time: 1800.870 seconds.

tnom = 27
temp = 27
method = modified trap
totiter = 283798
traniter = 281154
tranpoints = 140439
accept = 140251
rejected = 188
matrix size = 103
fillins = 180
Matrix Compiler1: 23.94 KB object code size  17.1/11.8/[8.3]
Matrix Compiler2: 14.49 KB object code size  11.3/6.6/[6.9]

