Circuit: * C:\Users\bakaneko\Facultad\Materias\Circuitos Electrónicos II\TPS\REPO-TPS\REPO-DSE\LTSPICE\amplifier\amplifier_SR.asc

Direct Newton iteration failed to find .op point.  (Use ".option noopiter" to skip.)
Starting Gmin stepping
Gmin = 10
Gmin = 1.07374
Gmin = 0.115292
Gmin = 0.0123794
Gmin = 0.00132923
Gmin = 0.000142725
Gmin = 1.5325e-005
Gmin = 1.6455e-006
vernier = 0.5
vernier = 0.25
vernier = 0.125
vernier = 0.0625
vernier = 0.03125
vernier = 0.015625
vernier = 0.0078125
Gmin = 2.04488e-006
vernier = 0.0104167
vernier = 0.0138889
Gmin = 1.99152e-006
vernier = 0.0185185
Gmin = 1.91041e-006
vernier = 0.0246913
vernier = 0.0329218
Gmin = 1.78177e-006
vernier = 0.0438957
vernier = 0.0219478
vernier = 0.0109739
vernier = 0.00548696
vernier = 0.00274348
Gmin = 1.69634e-006
vernier = 0.00137174
vernier = 0.00068587
vernier = 0.000514403
Gmin = 0
Gmin stepping failed

Starting source stepping with srcstepmethod=0
Source Step = 3.0303%
Source Step = 33.3333%
Source Step = 63.6364%
Source Step = 93.9394%
Source stepping succeeded in finding the operating point.


vout_max: v(out)=24.8285 at 0.00185
t1: time=0.00150317 at 0.00150317
t2: time=0.00150417 at 0.00150417
rt: t2-t1=1.00337e-006
sr: (vout_max/(5*rt))*1e-6=4.94901


Date: Mon Dec 16 01:53:30 2019
Total elapsed time: 6.799 seconds.

tnom = 27
temp = 27
method = modified trap
totiter = 53804
traniter = 51160
tranpoints = 25410
accept = 25326
rejected = 84
matrix size = 103
fillins = 180
solver = Alternate
Matrix Compiler1: 23.94 KB object code size  27.3/13.2/[9.0]
Matrix Compiler2: 14.49 KB object code size  6.2/6.5/[6.2]

