Circuit: * C:\Users\bakaneko\Facultad\Materias\Circuitos Electrónicos II\TPS\REPO-TPS\DSE\Spice (Diego)\preamp\preamp.asc

Number of points per decade reduced from 10000 to 5248.
WARNING: Less than two connections to node VCCH.  This node is used by V3.
WARNING: Less than two connections to node VSSH.  This node is used by V4.
Direct Newton iteration for .op point succeeded.
Note: .fourier statements are only valid with a .tran command.
      No Fourier analysis performed.




Date: Wed Sep 25 01:49:00 2019
Total elapsed time: 3.098 seconds.

tnom = 27
temp = 27
method = trap
totiter = 28
traniter = 0
tranpoints = 0
accept = 0
rejected = 0
matrix size = 46
fillins = 47
solver = Alternate
Matrix Compiler1:     257 opcodes
Matrix Compiler2: 4.94 KB object code size
