Circuit: * C:\Users\Alan\Downloads\etapa_ampli_Sziklai (2).asc

Warning: Multiple definitions of model "2sc2412k" Type: BJT
Warning: Multiple definitions of model "2sa1037ak" Type: BJT
Warning: Multiple definitions of model "bc817-16" Type: BJT
Warning: Multiple definitions of model "bc848b" Type: BJT
Warning: Multiple definitions of model "bc807-16" Type: BJT
Warning: Multiple definitions of model "bcx17" Type: BJT
Warning: Multiple definitions of model "bc858b" Type: BJT
Warning: Multiple definitions of model "2sd1898" Type: BJT
Warning: Multiple definitions of model "d45h11" Type: BJT
Warning: Multiple definitions of model "bc856b" Type: BJT
Warning: Multiple definitions of model "bc556b" Type: BJT
Warning: Multiple definitions of model "bc846b" Type: BJT
Warning: Multiple definitions of model "bc546b" Type: BJT
Warning: Multiple definitions of model "bc327-40" Type: BJT
Warning: Multiple definitions of model "bc327-25" Type: BJT
Warning: Multiple definitions of model "bc807-40" Type: BJT
Warning: Multiple definitions of model "bc807-25" Type: BJT
Warning: Multiple definitions of model "bc857c" Type: BJT
Warning: Multiple definitions of model "bc857b" Type: BJT
Warning: Multiple definitions of model "bc857a" Type: BJT
Warning: Multiple definitions of model "bc557c" Type: BJT
Warning: Multiple definitions of model "bc557b" Type: BJT
Warning: Multiple definitions of model "bc337-40" Type: BJT
Warning: Multiple definitions of model "bc337-25" Type: BJT
Warning: Multiple definitions of model "bc817-40" Type: BJT
Warning: Multiple definitions of model "bc817-25" Type: BJT
Warning: Multiple definitions of model "bc847c" Type: BJT
Warning: Multiple definitions of model "bc847b" Type: BJT
Warning: Multiple definitions of model "bc847a" Type: BJT
Warning: Multiple definitions of model "bc547c" Type: BJT
Warning: Multiple definitions of model "bc547b" Type: BJT
Warning: Multiple definitions of model "2n3019" Type: BJT
Warning: Multiple definitions of model "bcw68g" Type: BJT
Warning: Multiple definitions of model "bcw68f" Type: BJT
Warning: Multiple definitions of model "bcw60d" Type: BJT
Warning: Multiple definitions of model "bcw60c" Type: BJT
Warning: Multiple definitions of model "bcw60b" Type: BJT
Warning: Multiple definitions of model "bcw60a" Type: BJT
Warning: Multiple definitions of model "2n3055" Type: BJT
Warning: Multiple definitions of model "2n5771" Type: BJT
Warning: Multiple definitions of model "2n5769" Type: BJT
Warning: Multiple definitions of model "2n2369" Type: BJT
Warning: Multiple definitions of model "2n5401" Type: BJT
Warning: Multiple definitions of model "2n5550" Type: BJT
Warning: Multiple definitions of model "2n4403" Type: BJT
Warning: Multiple definitions of model "2n4401" Type: BJT
Warning: Multiple definitions of model "2n2905a" Type: BJT
Warning: Multiple definitions of model "2n2219a" Type: BJT
Warning: Multiple definitions of model "2n5087" Type: BJT
Warning: Multiple definitions of model "2n5210" Type: BJT
Warning: Multiple definitions of model "2n5089" Type: BJT
Warning: Multiple definitions of model "2n3391a" Type: BJT
Warning: Multiple definitions of model "2n4126" Type: BJT
Warning: Multiple definitions of model "2n4124" Type: BJT
Warning: Multiple definitions of model "ztx1048a" Type: BJT
Warning: Multiple definitions of model "ztx849" Type: BJT
Warning: Multiple definitions of model "fzt849" Type: BJT
Warning: Multiple definitions of model "2n3906" Type: BJT
Warning: Multiple definitions of model "2n3904" Type: BJT
Warning: Multiple definitions of model "2n2907" Type: BJT
Warning: Multiple definitions of model "2n2222" Type: BJT
Direct Newton iteration failed to find .op point.  (Use ".option noopiter" to skip.)
Starting Gmin stepping
Gmin = 10
Gmin = 1.07374
Gmin = 0.115292
Gmin = 0.0123794
Gmin = 0.00132923
Gmin = 0.000142725
Gmin = 1.5325e-005
vernier = 0.5
vernier = 0.25
Gmin = 5.56034e-006
vernier = 0.125
vernier = 0.0625
vernier = 0.03125
vernier = 0.015625
Gmin = 5.64019e-006
vernier = 0.0208333
vernier = 0.0277778
Gmin = 5.33393e-006
vernier = 0.037037
vernier = 0.0493827
Gmin = 4.88299e-006
vernier = 0.0658435
Gmin = 4.23241e-006
vernier = 0.0877914
vernier = 0.117055
Gmin = 3.35232e-006
vernier = 0.156073
vernier = 0.208098
Gmin = 2.32274e-006
vernier = 0.277464
Gmin = 1.28896e-006
vernier = 0.369952
vernier = 0.493269
Gmin = 5.00156e-007
vernier = 0.657691
vernier = 0.876922
Gmin = 1.16104e-007
vernier = 1
Gmin = 1.41211e-008
Gmin = 1.51624e-009
Gmin = 1.62805e-010
Gmin = 1.74811e-011
Gmin = 1.87702e-012
Gmin = 2.01543e-013
Gmin = 0
Gmin stepping succeeded in finding the operating point.

Heightened Def Con from 5.80389e-006 ++++++++++++++++++++to 5.80389e-006
Heightened Def Con from 5.80389e-006 +++++++++++++++++++++to 5.80389e-006
Heightened Def Con from 5.80389e-006 to 5.80389e-006
Heightened Def Con from 5.80389e-006 ++to 5.80389e-006
Heightened Def Con from 5.80389e-006 ++to 5.80389e-006
Heightened Def Con from 5.80389e-006 to 5.80389e-006
Heightened Def Con from 5.80389e-006 +++++++++to 5.80389e-006
Heightened Def Con from 5.80389e-006 to 5.80389e-006
Heightened Def Con from 5.80389e-006 ++++++++to 5.80389e-006
Heightened Def Con from 5.80389e-006 ++++++++++++++++++++to 5.80389e-006
Heightened Def Con from 5.80389e-006 ++++++++++++++++++to 5.80389e-006
Heightened Def Con from 5.80389e-006 ++++++++++++++++to 5.80389e-006
Heightened Def Con from 5.80389e-006 +++++++++++++++++++to 5.80389e-006
Heightened Def Con from 5.80389e-006 +++++++++++++++++++to 5.80389e-006
Heightened Def Con from 5.80389e-006 +++++++++++++++++++++to 5.80389e-006
Heightened Def Con from 5.80389e-006 to 5.80389e-006
Heightened Def Con from 5.80389e-006 ++to 5.80389e-006
Heightened Def Con from 5.80389e-006 +++++++++++++++++++++to 5.80389e-006
Heightened Def Con from 5.80389e-006 +++++++++to 5.80389e-006
Heightened Def Con from 5.80389e-006 +++to 5.80389e-006
Heightened Def Con from 5.80389e-006 +++++++++++++++++++++to 5.80389e-006
Heightened Def Con from 5.80389e-006 +to 5.80389e-006
Heightened Def Con from 5.80389e-006 +++++++++++++++++++++to 5.80389e-006
Heightened Def Con from 5.80389e-006 to 5.80389e-006
Heightened Def Con from 5.80389e-006 to 5.80389e-006
Heightened Def Con from 5.80389e-006 +++++++++++++++++++++to 5.80389e-006
Heightened Def Con from 5.80389e-006 +to 5.80389e-006
Heightened Def Con from 5.80389e-006 to 5.80389e-006
Heightened Def Con from 5.80389e-006 +to 5.80389e-006
Heightened Def Con from 5.80389e-006 ++to 5.80389e-006
Heightened Def Con from 5.80389e-006 +++++++++++++++++++++to 5.80389e-006
Heightened Def Con from 5.80389e-006 to 5.80389e-006
Heightened Def Con from 5.80389e-006 +++++++++++++++++++++to 5.80389e-006
Heightened Def Con from 5.80389e-006 +++++++++++++++++++++to 5.80389e-006
Heightened Def Con from 5.80389e-006 +++++++++++++++++++++to 5.80389e-006
Heightened Def Con from 5.80389e-006 ++to 5.80389e-006
Heightened Def Con from 5.80389e-006 to 5.80389e-006
Heightened Def Con from 5.80389e-006 +++++++++++++++++++++to 5.80389e-006
Heightened Def Con from 5.80389e-006 ++++to 5.80389e-006
Heightened Def Con from 5.80389e-006 +++++++++++++++++++++to 5.80389e-006
Heightened Def Con from 5.80389e-006 +++++++++++++++++++++to 5.80389e-006
Heightened Def Con from 5.80389e-006 to 5.80389e-006
Heightened Def Con from 5.80389e-006 to 5.80389e-006
Heightened Def Con from 5.80389e-006 to 5.80389e-006
Heightened Def Con from 5.80389e-006 +++++++++++++++++++++to 5.80389e-006
Heightened Def Con from 5.80389e-006 ++to 5.80389e-006
Heightened Def Con from 5.80389e-006 +to 5.80389e-006
Heightened Def Con from 5.80389e-006 ++++++++to 5.80389e-006
Heightened Def Con from 5.80389e-006 +++++++++++++++++++++to 5.80389e-006
Heightened Def Con from 5.80389e-006 +++++++++++++++++++++to 5.80389e-006
Heightened Def Con from 5.80389e-006 +++++++++++++++++++++to 5.80389e-006
Heightened Def Con from 5.80389e-006 +++++++++++++++++++++to 5.80389e-006
Heightened Def Con from 5.80389e-006 +++++++++++++++++++++to 5.80389e-006
Heightened Def Con from 5.80389e-006 +++to 5.80389e-006
Heightened Def Con from 5.80389e-006 +to 5.80389e-006
Heightened Def Con from 5.80389e-006 +++++++++++to 5.80389e-006
Heightened Def Con from 5.80389e-006 +++++++++++++++++++++to 5.80389e-006
Heightened Def Con from 5.80389e-006 +++++++++++++++++++++to 5.80389e-006
Heightened Def Con from 5.80389e-006 to 5.80389e-006
Heightened Def Con from 5.80389e-006 +++++++++++++++++++++to 5.80389e-006
Heightened Def Con from 5.80389e-006 to 5.80389e-006
Heightened Def Con from 5.80389e-006 to 5.80389e-006
Heightened Def Con from 5.80389e-006 +++++++++++++++++++++to 5.80389e-006
Heightened Def Con from 5.80389e-006 +++++++++++++++++++++to 5.80389e-006
Heightened Def Con from 5.80389e-006 +++++++++++++++++++++to 5.80389e-006
Heightened Def Con from 5.80389e-006 +++++++++++++to 5.80389e-006
Heightened Def Con from 5.80389e-006 +++++++++++++++++++++to 5.80389e-006
Heightened Def Con from 5.80389e-006 to 5.80389e-006
Heightened Def Con from 5.80389e-006 to 5.80389e-006
Heightened Def Con from 5.80389e-006 ++++++++to 5.80389e-006
Heightened Def Con from 5.80389e-006 +++++++++++++++++++++to 5.80389e-006
Heightened Def Con from 5.80389e-006 ++++to 5.80389e-006
Heightened Def Con from 5.80389e-006 to 5.80389e-006
Heightened Def Con from 5.80389e-006 +++++++++++++++++++++to 5.80389e-006
Heightened Def Con from 5.80389e-006 +++++++++++++++++++++to 5.80389e-006
Heightened Def Con from 5.80389e-006 ++to 5.80389e-006
Heightened Def Con from 5.80389e-006 +++++++++++++++++++++to 5.80389e-006
Heightened Def Con from 5.80389e-006 to 5.80389e-006
Heightened Def Con from 5.80389e-006 +to 5.80389e-006
Heightened Def Con from 5.80389e-006 ++++to 5.80389e-006
Heightened Def Con from 5.80389e-006 +++++++++++++++++++++to 5.80389e-006
Heightened Def Con from 5.80389e-006 +++++++++++++to 5.80389e-006
Heightened Def Con from 5.80389e-006 +++++++++++++++++++++to 5.80389e-006
Heightened Def Con from 5.80389e-006 +++++++++++++++++++++to 5.80389e-006
Heightened Def Con from 5.80389e-006 ++++to 5.80389e-006
Heightened Def Con from 5.80389e-006 +++++++++++++++++++++to 5.80389e-006
Heightened Def Con from 5.80389e-006 ++++++to 5.80389e-006
Heightened Def Con from 5.80389e-006 +++++++++++++++++++++to 5.80389e-006
Heightened Def Con from 5.80389e-006 to 5.80389e-006
Heightened Def Con from 5.80389e-006 ++to 5.80389e-006
Heightened Def Con from 5.80389e-006 +to 5.80389e-006
Heightened Def Con from 5.80389e-006 +++++++++++++++++++++to 5.80389e-006
Heightened Def Con from 5.80389e-006 +++++++to 5.80389e-006
Heightened Def Con from 5.80389e-006 to 5.80389e-006
Heightened Def Con from 5.80389e-006 to 5.80389e-006
Heightened Def Con from 5.80389e-006 to 5.80389e-006
Heightened Def Con from 5.80389e-006 +++++++++++++++++++++to 5.80389e-006
Heightened Def Con from 5.80389e-006 +++++++++to 5.80389e-006
Heightened Def Con from 5.80389e-006 +++++++++++++++++++++to 5.80389e-006
Heightened Def Con from 5.80389e-006 +++++++++++++++++++++to 5.80389e-006
Heightened Def Con from 5.80389e-006 ++to 5.80389e-006
Heightened Def Con from 5.80389e-006 to 5.80389e-006
Heightened Def Con from 5.80389e-006 ++++++++++to 5.80389e-006
Heightened Def Con from 5.80389e-006 +++++++to 5.80389e-006
Heightened Def Con from 5.80389e-006 +++++++++++++++++++++to 5.80389e-006
Heightened Def Con from 5.80389e-006 +++++++++++++++++++++to 5.80389e-006
Heightened Def Con from 5.80389e-006 +++++++++++++++++++++to 5.80389e-006
Heightened Def Con from 5.80389e-006 +++++++++++++++++++++to 5.80389e-006
Heightened Def Con from 5.80389e-006 ++++++to 5.80389e-006
Heightened Def Con from 5.80389e-006 ++to 5.80389e-006
Heightened Def Con from 5.80389e-006 +++++++++++++++++++++to 5.80389e-006
Heightened Def Con from 5.80389e-006 +++++++++++to 5.80389e-006
Heightened Def Con from 5.80389e-006 +to 5.80389e-006
Heightened Def Con from 5.80389e-006 +++++++++++++++++++++to 5.80389e-006
Heightened Def Con from 5.80389e-006 +++++++++++++++++++++to 5.80389e-006
Heightened Def Con from 5.80389e-006 +to 5.80389e-006
Heightened Def Con from 5.80389e-006 +++++++++++++to 5.80389e-006
Heightened Def Con from 5.80389e-006 +++++++++++++++++++++to 5.80389e-006
Heightened Def Con from 5.80389e-006 +++++++to 5.80389e-006
Heightened Def Con from 5.80389e-006 +++++++++++++++++++++to 5.80389e-006
Heightened Def Con from 5.80389e-006 ++++to 5.80389e-006
Heightened Def Con from 5.80389e-006 ++++++++to 5.80389e-006
Heightened Def Con from 5.80389e-006 +++++++++++++++++++++to 5.80389e-006
Heightened Def Con from 5.80389e-006 +++++++++++++++++++++to 5.80389e-006
Heightened Def Con from 5.80389e-006 +++++++++++++++++++++to 5.80389e-006
Heightened Def Con from 5.80389e-006 +++++++++++++++++++++to 5.80389e-006
Heightened Def Con from 5.80389e-006 to 5.80389e-006
Heightened Def Con from 5.80389e-006 +++++++++++++++++++++to 5.80389e-006
Heightened Def Con from 5.80389e-006 +to 5.80389e-006
Heightened Def Con from 5.80389e-006 +++++++++++++++++++++to 5.80389e-006
Heightened Def Con from 5.80389e-006 to 5.80389e-006
Heightened Def Con from 5.80389e-006 +++++++++++++++++++++to 5.80389e-006
Heightened Def Con from 5.80389e-006 ++++++++to 5.80389e-006
Heightened Def Con from 5.80389e-006 +++++++++++++++++++++to 5.80389e-006
Heightened Def Con from 5.80389e-006 +++++++++++++++++++++to 5.80389e-006
Heightened Def Con from 5.80389e-006 +++++++++++++++++++++to 5.80389e-006
Heightened Def Con from 5.80389e-006 to 5.80389e-006
Heightened Def Con from 5.80389e-006 +++++++++++++++++++++to 5.80389e-006
Heightened Def Con from 5.80389e-006 ++++++++++++++to 5.80389e-006
Heightened Def Con from 5.80389e-006 ++++++++++++++++++++++to 5.80389e-006
Heightened Def Con from 5.80389e-006 ++++to 5.80389e-006
Heightened Def Con from 5.80389e-006 ++++++++++to 5.80389e-006
Heightened Def Con from 5.80389e-006 ++++++++++++++++++++to 5.80389e-006
Heightened Def Con from 5.80389e-006 +++++++++++++++++++++++to 5.8039e-006
Heightened Def Con from 5.8039e-006 to 5.8039e-006
Heightened Def Con from 5.8039e-006 to 5.8039e-006
Heightened Def Con from 5.8039e-006 +++++++++++++++++++++++to 5.8039e-006
Heightened Def Con from 5.8039e-006 to 5.8039e-006
Heightened Def Con from 5.8039e-006 to 5.8039e-006
Heightened Def Con from 5.8039e-006 +to 5.8039e-006
Heightened Def Con from 5.8039e-006 +++++++++++++++++++++++to 5.8039e-006
Heightened Def Con from 5.8039e-006 +++to 5.8039e-006
Heightened Def Con from 5.8039e-006 +++to 5.8039e-006
Heightened Def Con from 5.8039e-006 ++to 5.8039e-006
Heightened Def Con from 5.8039e-006 +++to 5.8039e-006
Heightened Def Con from 5.8039e-006 +++++++++++++++++++to 5.8039e-006
Heightened Def Con from 5.8039e-006 +++++++++++++++++++++++to 5.8039e-006
Heightened Def Con from 5.8039e-006 ++++++++++++++++++++++to 5.8039e-006
Heightened Def Con from 5.8039e-006 +++++++++++++++++++++++to 5.8039e-006
Heightened Def Con from 5.8039e-006 +++++++++++++++++++++++to 5.8039e-006
Heightened Def Con from 5.8039e-006 +++++++++++++++++++++++to 5.8039e-006
Heightened Def Con from 5.8039e-006 +++++++to 5.8039e-006
Heightened Def Con from 5.8039e-006 +++++++++++++++++++++++to 5.8039e-006
Heightened Def Con from 5.8039e-006 +++++to 5.8039e-006
Heightened Def Con from 5.8039e-006 +++++++++++++++++++++++to 5.8039e-006
Heightened Def Con from 5.8039e-006 to 5.8039e-006
Heightened Def Con from 5.8039e-006 ++to 5.8039e-006
Heightened Def Con from 5.8039e-006 +++++++++++++++++++++++to 5.8039e-006
Heightened Def Con from 5.8039e-006 +++++++++++++++++++++++to 5.8039e-006
Heightened Def Con from 5.8039e-006 +++++++++++to 5.8039e-006
Heightened Def Con from 5.8039e-006 +++++++++++++++++++++++to 5.8039e-006
Heightened Def Con from 5.8039e-006 +++++++++++++++++++++++to 5.8039e-006
Heightened Def Con from 5.8039e-006 +++++++++++++++++++++++to 5.8039e-006
Heightened Def Con from 5.8039e-006 ++++++++++++++to 5.8039e-006
Heightened Def Con from 5.8039e-006 +++++++++++++++++++++++to 5.8039e-006
Heightened Def Con from 5.8039e-006 ++++++++++++++++++++++to 5.8039e-006
Heightened Def Con from 5.8039e-006 +++++++++++++++++++++++to 5.8039e-006
Heightened Def Con from 5.8039e-006 +++++++++++++++++++++++to 5.8039e-006
Heightened Def Con from 5.8039e-006 +++++++++++to 5.8039e-006
Heightened Def Con from 5.8039e-006 ++++++++++++++++++++++to 5.8039e-006
Heightened Def Con from 5.8039e-006 +++++++++++++++++++++++to 5.8039e-006
Heightened Def Con from 5.8039e-006 +++++++++++++++++++++++to 5.8039e-006
Heightened Def Con from 5.8039e-006 +++++++++++++++++++++++to 5.8039e-006
Heightened Def Con from 5.8039e-006 +++++to 5.8039e-006
Heightened Def Con from 5.8039e-006 +++++++++++++++++++++++to 5.8039e-006
Heightened Def Con from 5.8039e-006 +++++++++++++++++++++++to 5.8039e-006
Heightened Def Con from 5.8039e-006 ++++++++++++++++++++++to 5.8039e-006
Heightened Def Con from 5.8039e-006 ++++++++++++++++++++++to 5.8039e-006
Heightened Def Con from 5.8039e-006 +++++++++++++++++++++++to 5.8039e-006
Heightened Def Con from 5.8039e-006 +++++++++++++++++++++++to 5.8039e-006
Heightened Def Con from 5.8039e-006 +++++++++++++++++++++++to 5.8039e-006
Heightened Def Con from 5.8039e-006 +++++++to 5.8039e-006
Heightened Def Con from 5.8039e-006 +++++++++++++++++++++++to 5.8039e-006
Heightened Def Con from 5.8039e-006 +++++++++++++++++++++++to 5.8039e-006
Heightened Def Con from 5.8039e-006 +++++++++++++++++++++++to 5.8039e-006
Heightened Def Con from 5.8039e-006 +++++++++++++++++++++++to 5.8039e-006
Heightened Def Con from 5.8039e-006 +++++++++++++++++++++++to 5.8039e-006
Heightened Def Con from 5.8039e-006 +++++++++++++++++++++++to 5.8039e-006
Heightened Def Con from 5.8039e-006 +++++++++++++++++++++++to 5.8039e-006
Heightened Def Con from 5.8039e-006 +++++++++++++++++++++++to 5.8039e-006
Heightened Def Con from 5.8039e-006 +++++++++++++++++++++++to 5.8039e-006
Heightened Def Con from 5.8039e-006 ++++++++++++++++++++++to 5.8039e-006
Heightened Def Con from 5.8039e-006 +++++++++++++++++++++++to 5.8039e-006
Heightened Def Con from 5.8039e-006 +++++++++++++++++++++++to 5.8039e-006
Heightened Def Con from 5.8039e-006 ++to 5.8039e-006
Heightened Def Con from 5.8039e-006 +++++++++++++++++++++++to 5.8039e-006
Heightened Def Con from 5.8039e-006 +++++++++++++++++++++++to 5.8039e-006
Heightened Def Con from 5.8039e-006 +++++++++++++++++++++++to 5.8039e-006
Heightened Def Con from 5.8039e-006 +++++++++++++++++++++++to 5.8039e-006
Heightened Def Con from 5.8039e-006 +++++++++++++++++++++++to 5.8039e-006
Heightened Def Con from 5.8039e-006 +++++++++++++++++++++++to 5.8039e-006
Heightened Def Con from 5.8039e-006 +++++++++++++++++++++++to 5.8039e-006
Heightened Def Con from 5.8039e-006 +++++++++++++++++++++++to 5.8039e-006
Heightened Def Con from 5.8039e-006 +++++++++++++++++++++++to 5.8039e-006
Heightened Def Con from 5.8039e-006 +++++++++++++++++++++++to 5.8039e-006
Heightened Def Con from 5.8039e-006 +++++++++++++++++++++++to 5.8039e-006
Heightened Def Con from 5.8039e-006 +++++++++++++++++++++++to 5.8039e-006
Heightened Def Con from 5.8039e-006 +++to 5.8039e-006
Heightened Def Con from 5.8039e-006 +++++++++++++++++++++++to 5.8039e-006
Heightened Def Con from 5.8039e-006 +++++++to 5.8039e-006
Heightened Def Con from 5.8039e-006 +++++++++++++++++++++++to 5.8039e-006
Heightened Def Con from 5.8039e-006 +++++++++++++++++++++++to 5.8039e-006
Heightened Def Con from 5.8039e-006 to 5.8039e-006
Heightened Def Con from 5.8039e-006 +++++++++++++++++++++++to 5.8039e-006
Heightened Def Con from 5.8039e-006 +++++++++++++++++++++++to 5.8039e-006
Heightened Def Con from 5.8039e-006 +++++++++++++++++++++++to 5.8039e-006
Heightened Def Con from 5.8039e-006 +++++++++++++++++++++++to 5.8039e-006
Heightened Def Con from 5.8039e-006 +++++++++++++++++++++++to 5.8039e-006
Heightened Def Con from 5.8039e-006 +++++++++++++++++++++++to 5.8039e-006
Heightened Def Con from 5.8039e-006 +++++++++++++++++++++++to 5.8039e-006
Heightened Def Con from 5.8039e-006 +++++++++++++++++++++++to 5.8039e-006
Heightened Def Con from 5.8039e-006 ++++++++++++++++++++++to 5.8039e-006
Heightened Def Con from 5.8039e-006 +++++++++++++++++++++++to 5.8039e-006
Heightened Def Con from 5.8039e-006 +++++++++++++++++++++++to 5.8039e-006
Heightened Def Con from 5.8039e-006 +++++++++++++++++++++++to 5.8039e-006
Heightened Def Con from 5.8039e-006 +++++++++++++++++++++++to 5.8039e-006
Heightened Def Con from 5.8039e-006 +++++++++++++++++++++++to 5.8039e-006
Heightened Def Con from 5.8039e-006 +++++++++++++++++++++++to 5.8039e-006
Heightened Def Con from 5.8039e-006 +++++++++++++++++++++++to 5.8039e-006
Heightened Def Con from 5.8039e-006 +++++++++++++++++++++++to 5.8039e-006
Heightened Def Con from 5.8039e-006 +++++++++++++++++++++++to 5.8039e-006
Heightened Def Con from 5.8039e-006 +++++++++++++++++++++++to 5.8039e-006
Heightened Def Con from 5.8039e-006 +++++++++++++++++++++++to 5.8039e-006
Heightened Def Con from 5.8039e-006 ++++++++++++++++++++++++to 5.80392e-006
Heightened Def Con from 5.80392e-006 +++++++++++++++to 5.80392e-006
Heightened Def Con from 5.80392e-006 ++++++++++++++++to 5.80392e-006
Heightened Def Con from 5.80392e-006 to 5.80392e-006
Heightened Def Con from 5.80392e-006 ++++++++to 5.80392e-006
Heightened Def Con from 5.80392e-006 ++++to 5.80392e-006
Heightened Def Con from 5.80392e-006 to 5.80392e-006
Heightened Def Con from 5.80392e-006 ++to 5.80392e-006
Heightened Def Con from 5.80392e-006 +to 5.80392e-006
Heightened Def Con from 5.80392e-006 ++++++++++++++++++++++++to 5.80392e-006
Heightened Def Con from 5.80392e-006 to 5.80392e-006
Heightened Def Con from 5.80392e-006 ++++++++++++++++++++++++to 5.80392e-006
Heightened Def Con from 5.80392e-006 to 5.80392e-006
Heightened Def Con from 5.80392e-006 to 5.80392e-006
Heightened Def Con from 5.80392e-006 ++++++++++++++to 5.80392e-006
Heightened Def Con from 5.80392e-006 +to 5.80392e-006
Heightened Def Con from 5.80392e-006 ++++++++++++++++++++++++to 5.80392e-006
Heightened Def Con from 5.80392e-006 to 5.80392e-006
Heightened Def Con from 5.80392e-006 +++++++++to 5.80392e-006
Heightened Def Con from 5.80392e-006 ++++++++++++++++++++++++to 5.80392e-006
Heightened Def Con from 5.80392e-006 +++++++++to 5.80392e-006
Heightened Def Con from 5.80392e-006 ++++++++++++++++++++++++to 5.80392e-006
Heightened Def Con from 5.80392e-006 ++++++++++++++++++++++++to 5.80392e-006
Heightened Def Con from 5.80392e-006 ++to 5.80392e-006
Heightened Def Con from 5.80392e-006 +++++++++++++++++++++++to 5.80392e-006
Heightened Def Con from 5.80392e-006 +to 5.80392e-006
Heightened Def Con from 5.80392e-006 ++++++++++++++++++++++++to 5.80392e-006
Heightened Def Con from 5.80392e-006 to 5.80392e-006
Heightened Def Con from 5.80392e-006 to 5.80392e-006
Heightened Def Con from 5.80392e-006 to 5.80392e-006
Heightened Def Con from 5.80392e-006 +++to 5.80392e-006
Heightened Def Con from 5.80392e-006 ++++++++++++++++++++++++to 5.80392e-006
Heightened Def Con from 5.80392e-006 ++++++++++++++++++++++to 5.80392e-006
Heightened Def Con from 5.80392e-006 ++++++++++++++++++++++++to 5.80392e-006
Heightened Def Con from 5.80392e-006 to 5.80392e-006
Heightened Def Con from 5.80392e-006 ++++++++++++++++++++++++to 5.80392e-006
Heightened Def Con from 5.80392e-006 +to 5.80392e-006
Heightened Def Con from 5.80392e-006 +to 5.80392e-006
Heightened Def Con from 5.80392e-006 +++to 5.80392e-006
Heightened Def Con from 5.80392e-006 ++++++++++++++++++++++++to 5.80392e-006
Heightened Def Con from 5.80392e-006 +to 5.80392e-006
Heightened Def Con from 5.80392e-006 +to 5.80392e-006
Heightened Def Con from 5.80392e-006 ++++++++++++++++++++++to 5.80392e-006
Heightened Def Con from 5.80392e-006 ++++++++++++++++++++++++to 5.80392e-006
Heightened Def Con from 5.80392e-006 to 5.80392e-006
Heightened Def Con from 5.80392e-006 +++++to 5.80392e-006
Heightened Def Con from 5.80392e-006 ++to 5.80392e-006
Heightened Def Con from 5.80392e-006 ++++to 5.80392e-006
Heightened Def Con from 5.80392e-006 +to 5.80392e-006
Heightened Def Con from 5.80392e-006 ++++++++++++++++++++++++to 5.80392e-006
Heightened Def Con from 5.80392e-006 +++++++++++++++++++++++to 5.80392e-006
Heightened Def Con from 5.80392e-006 ++++++++++++++++++++++++to 5.80392e-006
Heightened Def Con from 5.80392e-006 ++++++++++++++++++++++++to 5.80392e-006
Heightened Def Con from 5.80392e-006 to 5.80392e-006
Heightened Def Con from 5.80392e-006 ++++++++++++++++++++++to 5.80392e-006
Heightened Def Con from 5.80392e-006 ++++++++++++++++++++++++to 5.80392e-006
Heightened Def Con from 5.80392e-006 to 5.80392e-006
Heightened Def Con from 5.80392e-006 +to 5.80392e-006
Heightened Def Con from 5.80392e-006 ++++++++++++++++++to 5.80392e-006
Heightened Def Con from 5.80392e-006 ++++++++++++to 5.80392e-006
Heightened Def Con from 5.80392e-006 ++++++++++++++++++++++++to 5.80392e-006
Heightened Def Con from 5.80392e-006 to 5.80392e-006
Heightened Def Con from 5.80392e-006 to 5.80392e-006
Heightened Def Con from 5.80392e-006 +to 5.80392e-006
Heightened Def Con from 5.80392e-006 +++++++++to 5.80392e-006
Heightened Def Con from 5.80392e-006 +to 5.80392e-006
Heightened Def Con from 5.80392e-006 +to 5.80392e-006
Heightened Def Con from 5.80392e-006 ++++++++++++++++++++++to 5.80392e-006
Heightened Def Con from 5.80392e-006 ++++++++++++++++++++++++to 5.80392e-006
Heightened Def Con from 5.80392e-006 to 5.80392e-006
Heightened Def Con from 5.80392e-006 ++to 5.80392e-006
Heightened Def Con from 5.80392e-006 +to 5.80392e-006
Heightened Def Con from 5.80392e-006 +++++++to 5.80392e-006
Heightened Def Con from 5.80392e-006 +++++to 5.80392e-006
Heightened Def Con from 5.80392e-006 ++++++++++++++++++++++++to 5.80392e-006
Heightened Def Con from 5.80392e-006 ++++++++++++++++to 5.80392e-006
Heightened Def Con from 5.80392e-006 ++++++++++++++++++++++++to 5.80392e-006
Heightened Def Con from 5.80392e-006 ++to 5.80392e-006
Heightened Def Con from 5.80392e-006 ++++++++++++++++++++++++to 5.80392e-006
Heightened Def Con from 5.80392e-006 +to 5.80392e-006
Heightened Def Con from 5.80392e-006 +++++++++++++++++++++++to 5.80392e-006
Heightened Def Con from 5.80392e-006 ++++++++++++++++++++++++to 5.80392e-006
Heightened Def Con from 5.80392e-006 to 5.80392e-006
Heightened Def Con from 5.80392e-006 ++++to 5.80392e-006
Heightened Def Con from 5.80392e-006 +to 5.80392e-006
Heightened Def Con from 5.80392e-006 to 5.80392e-006
Heightened Def Con from 5.80392e-006 ++++++++++++++++++++++++to 5.80392e-006
Heightened Def Con from 5.80392e-006 to 5.80392e-006
Heightened Def Con from 5.80392e-006 ++to 5.80392e-006
Heightened Def Con from 5.80392e-006 to 5.80392e-006
Heightened Def Con from 5.80392e-006 ++++++++++++++++++++++++to 5.80392e-006
Heightened Def Con from 5.80392e-006 +++++++++++++++++++++to 5.80405e-006
Heightened Def Con from 5.80406e-006 +to 5.80406e-006
Heightened Def Con from 5.80406e-006 to 5.80406e-006
Heightened Def Con from 5.80406e-006 to 5.80406e-006
Heightened Def Con from 5.81206e-006 ++++++++++++++++++++++to 5.81206e-006
Heightened Def Con from 5.81206e-006 +to 5.81206e-006
Heightened Def Con from 5.81206e-006 +to 5.81206e-006
Heightened Def Con from 5.81206e-006 +++to 5.81206e-006
Heightened Def Con from 5.81206e-006 to 5.81206e-006
Heightened Def Con from 5.81206e-006 ++++to 5.81206e-006
Heightened Def Con from 5.81206e-006 +++++++to 5.81206e-006
Heightened Def Con from 5.81206e-006 ++to 5.81206e-006
Heightened Def Con from 5.81206e-006 ++++++++++++++++++++++to 5.81206e-006
Heightened Def Con from 5.81206e-006 +to 5.81206e-006
Heightened Def Con from 5.81206e-006 ++++++++to 5.81206e-006
Heightened Def Con from 5.81206e-006 ++++to 5.81206e-006
Heightened Def Con from 5.81206e-006 ++++++++++to 5.81206e-006
Heightened Def Con from 5.81206e-006 ++to 5.81206e-006
Heightened Def Con from 5.81206e-006 ++++++++++++++++++++++to 5.81206e-006
Heightened Def Con from 5.81206e-006 ++++++++++++++++++++++to 5.81206e-006
Heightened Def Con from 5.81206e-006 +to 5.81206e-006
Heightened Def Con from 5.81206e-006 to 5.81206e-006
Heightened Def Con from 5.81206e-006 ++to 5.81206e-006
Heightened Def Con from 5.81206e-006 +++++++to 5.81206e-006
Heightened Def Con from 5.81206e-006 ++++++++++++to 5.81206e-006
Heightened Def Con from 5.81206e-006 ++++++++++++++++++++++to 5.81206e-006
Heightened Def Con from 5.81206e-006 to 5.81206e-006
Heightened Def Con from 5.81206e-006 ++++++++++++++++++++++to 5.81206e-006
Heightened Def Con from 5.81206e-006 +to 5.81206e-006
Heightened Def Con from 5.81206e-006 ++++to 5.81206e-006
Heightened Def Con from 5.81206e-006 to 5.81206e-006
Heightened Def Con from 5.81206e-006 ++to 5.81206e-006
Heightened Def Con from 5.81206e-006 ++++++++++to 5.81206e-006
Heightened Def Con from 5.81206e-006 ++++++++++++++++++++++to 5.81206e-006
Heightened Def Con from 5.81206e-006 to 5.81206e-006
Heightened Def Con from 5.81206e-006 to 5.81206e-006
Heightened Def Con from 5.81206e-006 ++++++++++++++++++++++to 5.81206e-006
Heightened Def Con from 5.81206e-006 +to 5.81206e-006
Heightened Def Con from 5.81206e-006 to 5.81206e-006
Heightened Def Con from 5.81206e-006 +++++++to 5.81206e-006
Heightened Def Con from 5.81206e-006 +++++++++++++++to 5.81206e-006
Heightened Def Con from 5.81206e-006 ++++++++++++++++++++++to 5.81206e-006
Heightened Def Con from 5.81206e-006 +to 5.81206e-006
Heightened Def Con from 5.81206e-006 to 5.81206e-006
Heightened Def Con from 5.81206e-006 to 5.81206e-006
Heightened Def Con from 5.81206e-006 to 5.81206e-006
Heightened Def Con from 5.81206e-006 ++++++to 5.81206e-006
Heightened Def Con from 5.81206e-006 ++++++++++++++++++++++to 5.81206e-006
Heightened Def Con from 5.81206e-006 ++++++++++++++++++++++to 5.81206e-006
Heightened Def Con from 5.81206e-006 ++++++++++++++++to 5.81206e-006
Heightened Def Con from 5.81206e-006 ++++++++++++++++++++++to 5.81206e-006
Heightened Def Con from 5.81206e-006 ++++++++++++++++++++++to 5.81206e-006
Heightened Def Con from 5.81206e-006 +++++++++++++++++++++to 5.81219e-006
Heightened Def Con from 5.8122e-006 to 5.8122e-006
Heightened Def Con from 5.8122e-006 to 5.8122e-006
Heightened Def Con from 5.82231e-006 +++++to 5.82231e-006
Heightened Def Con from 5.82231e-006 to 5.82231e-006
Heightened Def Con from 5.82231e-006 +++++++++++++++++++++++to 5.82231e-006
Heightened Def Con from 5.82231e-006 to 5.82231e-006
Heightened Def Con from 5.82231e-006 to 5.82231e-006
Heightened Def Con from 5.82231e-006 +++++++++++++++++++++++to 5.82232e-006
Heightened Def Con from 5.82232e-006 to 5.82232e-006
Heightened Def Con from 5.82232e-006 ++++to 5.82232e-006
Heightened Def Con from 5.82232e-006 +++++++++++++++++++++++to 5.82232e-006
Heightened Def Con from 5.82232e-006 +to 5.82232e-006
Heightened Def Con from 5.82232e-006 +to 5.82232e-006
Heightened Def Con from 5.82232e-006 ++++++++++++++++++++++to 5.82232e-006
Heightened Def Con from 5.82232e-006 +++++++++++++++++++++++to 5.82232e-006
Heightened Def Con from 5.82232e-006 ++++++++++++++++++++++to 5.82232e-006
Heightened Def Con from 5.82232e-006 +++++++++++++to 5.82232e-006
Heightened Def Con from 5.82232e-006 +++++++++++++++to 5.82232e-006
Heightened Def Con from 5.82232e-006 +++++++++++++++++++++++to 5.82232e-006
Heightened Def Con from 5.82232e-006 +to 5.82232e-006
Heightened Def Con from 5.82232e-006 to 5.82232e-006
Heightened Def Con from 5.82232e-006 +++to 5.82232e-006
Heightened Def Con from 5.82232e-006 +++++++to 5.82232e-006
Heightened Def Con from 5.82232e-006 +++++++++++++++to 5.82232e-006
Heightened Def Con from 5.82232e-006 +++++++++++++++++++++++to 5.82232e-006
Heightened Def Con from 5.82232e-006 to 5.82232e-006
Heightened Def Con from 5.82232e-006 +++++++++++++to 5.82232e-006
Heightened Def Con from 5.82232e-006 ++++++++++++++++++to 5.82232e-006
Heightened Def Con from 5.82232e-006 +++++++++++++++++++++++to 5.82232e-006
Heightened Def Con from 5.82232e-006 +++++++++++++++++++++++to 5.82232e-006
Heightened Def Con from 5.82232e-006 to 5.82232e-006
Heightened Def Con from 5.82232e-006 +++++++++++to 5.82232e-006
Heightened Def Con from 5.82232e-006 +to 5.82232e-006
Heightened Def Con from 5.82232e-006 ++++++++++++to 5.82232e-006
Heightened Def Con from 5.82232e-006 +++++++++++++++++++++++to 5.82232e-006
Heightened Def Con from 5.82232e-006 +++++++++++++to 5.82232e-006
Heightened Def Con from 5.82232e-006 +++++++++++++++++++++++to 5.82232e-006
Heightened Def Con from 5.82232e-006 ++++to 5.82232e-006
Heightened Def Con from 5.82232e-006 +++++++++++to 5.82232e-006
Heightened Def Con from 5.82232e-006 +++++++++to 5.82232e-006
Heightened Def Con from 5.82232e-006 +++++++++++++++++++++++to 5.82232e-006
Heightened Def Con from 5.82232e-006 to 5.82232e-006
Heightened Def Con from 5.82232e-006 ++to 5.82232e-006
Heightened Def Con from 5.82232e-006 +++++++++++++++to 5.82232e-006
Heightened Def Con from 5.82232e-006 +++++++++++to 5.82232e-006
Heightened Def Con from 5.82232e-006 +++++++++++++++++++++++to 5.82232e-006
Heightened Def Con from 5.82232e-006 +++to 5.82232e-006
Heightened Def Con from 5.82232e-006 +++++++++++++++++++++++to 5.82232e-006
Heightened Def Con from 5.82232e-006 ++++++++++++++++++++++to 5.82232e-006
Heightened Def Con from 5.82232e-006 +++++++++++++++++++++++to 5.82232e-006
Heightened Def Con from 5.82232e-006 ++++++++++++++++++++++to 5.82232e-006
Heightened Def Con from 5.82232e-006 +++++++++++++++to 5.82232e-006
Heightened Def Con from 5.82232e-006 +++++++++++++++++++++++to 5.82232e-006
Heightened Def Con from 5.82232e-006 +++++++++++++++++to 5.82232e-006
Heightened Def Con from 5.82232e-006 +++++++++++++++++++++++to 5.82232e-006
Heightened Def Con from 5.82232e-006 ++++to 5.82232e-006
Heightened Def Con from 5.82232e-006 +to 5.82232e-006
Heightened Def Con from 5.82232e-006 ++++++++++to 5.82232e-006
Heightened Def Con from 5.82232e-006 +++++++++++++++++to 5.82232e-006
Heightened Def Con from 5.82232e-006 +++++++++++++++++++++++to 5.82232e-006
Heightened Def Con from 5.82232e-006 +to 5.82232e-006
Heightened Def Con from 5.82232e-006 +++++++++++++++++++++++to 5.82232e-006
Heightened Def Con from 5.82232e-006 +++++++++++++++++++++++to 5.82232e-006
Heightened Def Con from 5.82232e-006 +++++++++++++++++++++++to 5.82232e-006
Heightened Def Con from 5.82232e-006 +++++to 5.82232e-006
Heightened Def Con from 5.82232e-006 ++++++++++++to 5.82232e-006
Heightened Def Con from 5.82232e-006 to 5.82232e-006
Heightened Def Con from 5.82232e-006 +++++++++++++++++++++++to 5.82232e-006
Heightened Def Con from 5.82232e-006 +++++++to 5.82232e-006
Heightened Def Con from 5.82232e-006 ++++++++++++++to 5.82232e-006
Heightened Def Con from 5.82232e-006 +++++++++++++++++++++++to 5.82232e-006
Heightened Def Con from 5.82232e-006 +to 5.82232e-006
Heightened Def Con from 5.82232e-006 to 5.82232e-006
Heightened Def Con from 5.82232e-006 +++++++++++++++++++++++to 5.82232e-006
Heightened Def Con from 5.82232e-006 +++++++++++++++++++++++to 5.82232e-006
Heightened Def Con from 5.82232e-006 +++++++++to 5.82232e-006
Heightened Def Con from 5.82232e-006 ++to 5.82232e-006
Heightened Def Con from 5.82232e-006 +++++++to 5.82232e-006
Heightened Def Con from 5.82232e-006 +++++++++++++++++++to 5.82232e-006
Heightened Def Con from 5.82232e-006 +++++++to 5.82232e-006
Heightened Def Con from 5.82232e-006 +++++++++++++++++++++++to 5.82232e-006
Heightened Def Con from 5.82232e-006 +++++++++++++++++++++++to 5.82232e-006
Heightened Def Con from 5.82232e-006 +++++++++++++++++++++++to 5.82232e-006
Heightened Def Con from 5.82232e-006 ++++++++++to 5.82232e-006
Heightened Def Con from 5.82232e-006 +++++++++++++++++++++++to 5.82232e-006
Heightened Def Con from 5.82232e-006 +++++++++++++++++++++++to 5.82232e-006
Heightened Def Con from 5.82232e-006 ++++++to 5.82232e-006
Heightened Def Con from 5.82232e-006 to 5.82232e-006
Heightened Def Con from 5.82232e-006 +++++++++++++++++++++++to 5.82232e-006
Heightened Def Con from 5.82232e-006 +to 5.82232e-006
Heightened Def Con from 5.82232e-006 to 5.82232e-006
Heightened Def Con from 5.82232e-006 ++++to 5.82232e-006
Heightened Def Con from 5.82232e-006 to 5.82232e-006
Heightened Def Con from 5.82232e-006 +++++++++++to 5.82232e-006
Heightened Def Con from 5.82232e-006 ++to 5.82232e-006
Heightened Def Con from 5.82232e-006 +++++++++++++++++++++++to 5.82232e-006
Heightened Def Con from 5.82232e-006 ++++++++++++++++++++++to 5.82244e-006
Heightened Def Con from 5.82246e-006 +++++++++++++++++++++++++++++++++++++++++++++++to 5.82246e-006
Heightened Def Con from 5.82246e-006 +++++++++++++++++++++++++++to 5.82246e-006
Heightened Def Con from 5.82313e-006 to 5.82813e-006
Heightened Def Con from 5.82937e-006 to 5.82937e-006
Heightened Def Con from 5.82937e-006 +to 5.82937e-006
Heightened Def Con from 5.82937e-006 ++++++++++++++++++++++++to 5.82937e-006
Heightened Def Con from 5.82937e-006 +++++++++++++++++++++to 5.82937e-006
Heightened Def Con from 5.82937e-006 ++++++++++++to 5.82937e-006
Heightened Def Con from 5.82937e-006 ++++++to 5.82937e-006
Heightened Def Con from 5.82937e-006 ++++++to 5.82937e-006
Heightened Def Con from 5.82937e-006 +++++++++++++++++++++to 5.82937e-006
Heightened Def Con from 5.82937e-006 +++++++++++++++++++++++to 5.82937e-006
Heightened Def Con from 5.82937e-006 +++++++++++++++++++++++++++++++++++++++++++++++to 5.82937e-006
Heightened Def Con from 5.82937e-006 to 5.82938e-006
Heightened Def Con from 5.82965e-006 to 5.83665e-006
Heightened Def Con from 5.84018e-006 to 5.84256e-006
Heightened Def Con from 5.84297e-006 to 5.84398e-006
Heightened Def Con from 5.84522e-006 to 5.84535e-006
Heightened Def Con from 5.84536e-006 to 5.84536e-006
Heightened Def Con from 5.84692e-006 to 5.84905e-006
Heightened Def Con from 5.84972e-006 to 5.85184e-006
Heightened Def Con from 5.85251e-006 to 5.85464e-006
Heightened Def Con from 5.8553e-006 to 5.85643e-006
Heightened Def Con from 5.85737e-006 to 5.85749e-006
Heightened Def Con from 5.85751e-006 +to 5.85751e-006
Heightened Def Con from 5.85751e-006 +to 5.85751e-006
Heightened Def Con from 5.85751e-006 to 5.85751e-006
Heightened Def Con from 5.85751e-006 ++++++++++++++++++++++++++++++++++++++++++++to 5.85751e-006
Heightened Def Con from 5.85751e-006 to 5.85864e-006
Heightened Def Con from 5.85927e-006 to 5.85941e-006
Heightened Def Con from 5.86049e-006 to 5.86261e-006
Heightened Def Con from 5.86325e-006 to 5.8655e-006
Heightened Def Con from 5.86598e-006 to 5.867e-006
Heightened Def Con from 5.86722e-006 ++to 5.86722e-006
Heightened Def Con from 5.86722e-006 ++++++++++++++++++++++++++++++++++++++++++to 5.86722e-006
Heightened Def Con from 5.86722e-006 to 5.86736e-006
Heightened Def Con from 5.86901e-006 to 5.87113e-006
Heightened Def Con from 5.87174e-006 to 5.87399e-006
Heightened Def Con from 5.87445e-006 to 5.8767e-006
Heightened Def Con from 5.87715e-006 to 5.88128e-006
Heightened Def Con from 5.88237e-006 to 5.88339e-006
Heightened Def Con from 5.88358e-006 +++++to 5.88358e-006
Heightened Def Con from 5.88358e-006 to 5.88358e-006
Heightened Def Con from 5.88559e-006 to 5.88661e-006
Heightened Def Con from 5.88827e-006 +to 5.88827e-006
Heightened Def Con from 5.88827e-006 to 5.88827e-006
Heightened Def Con from 5.88827e-006 to 5.88827e-006
Heightened Def Con from 5.88827e-006 +++++++++++++++++++++++to 5.88828e-006
Heightened Def Con from 5.88829e-006 ++++++++++++++++++++++++++++++++++++++++++++++++to 5.88829e-006
Heightened Def Con from 5.88829e-006 ++++++++++++++++++++++++++to 5.88829e-006
Heightened Def Con from 5.889e-006 to 5.895e-006
Heightened Def Con from 5.89699e-006 to 5.90299e-006
Heightened Def Con from 5.90738e-006 to 5.90738e-006
Heightened Def Con from 5.90738e-006 to 5.90738e-006
Heightened Def Con from 5.90738e-006 +++++++++++++to 5.90738e-006
Heightened Def Con from 5.90738e-006 ++to 5.90738e-006
Heightened Def Con from 5.90738e-006 +++to 5.90738e-006
Heightened Def Con from 5.90738e-006 ++++++++++++++++++to 5.90738e-006
Heightened Def Con from 5.90738e-006 to 5.90738e-006
Heightened Def Con from 5.90738e-006 +++++to 5.90738e-006
Heightened Def Con from 5.90738e-006 to 5.90738e-006
Heightened Def Con from 5.90886e-006 to 5.91586e-006
Heightened Def Con from 5.92087e-006 to 5.92312e-006
Heightened Def Con from 5.92379e-006 to 5.92604e-006
Heightened Def Con from 5.92674e-006 to 5.92975e-006
Heightened Def Con from 5.92982e-006 to 5.93084e-006
Heightened Def Con from 5.93098e-006 to 5.93098e-006
Heightened Def Con from 5.93098e-006 ++to 5.93098e-006
Heightened Def Con from 5.93098e-006 to 5.93098e-006
Heightened Def Con from 5.93271e-006 to 5.93584e-006
Heightened Def Con from 5.93596e-006 to 5.93698e-006
Heightened Def Con from 5.93714e-006 to 5.93714e-006
Heightened Def Con from 5.93714e-006 to 5.93714e-006
Heightened Def Con from 5.93714e-006 ++++++to 5.93714e-006
Heightened Def Con from 5.93714e-006 ++to 5.93714e-006
Heightened Def Con from 5.93714e-006 +++++++++++++++++++to 5.93714e-006
Heightened Def Con from 5.93895e-006 ++++++++++++++++to 5.93895e-006
Heightened Def Con from 5.93895e-006 to 5.93895e-006
Heightened Def Con from 5.93895e-006 ++++++++++++++++++++++to 5.93997e-006
Heightened Def Con from 5.94015e-006 +to 5.94015e-006
Heightened Def Con from 5.94015e-006 +++to 5.94015e-006
Heightened Def Con from 5.94015e-006 to 5.94015e-006
Heightened Def Con from 5.94015e-006 ++++++++++++++++++++++++++++++++++++++++++++++++to 5.94615e-006
Heightened Def Con from 5.94615e-006 ++++++++++++++++++++++++++++++to 5.94615e-006
Heightened Def Con from 5.94615e-006 +++++++++++++++++++++++++++++to 5.94615e-006
Heightened Def Con from 5.94615e-006 +++++++++++++++++++++++++++++to 5.94617e-006
Heightened Def Con from 5.94617e-006 ++++++++++++++++++++++++++++to 5.94637e-006
Heightened Def Con from 5.94637e-006 to 5.9466e-006
Heightened Def Con from 5.95533e-006 to 5.95645e-006
Heightened Def Con from 5.95693e-006 to 5.95693e-006
Heightened Def Con from 5.95693e-006 to 5.95693e-006
Heightened Def Con from 5.95693e-006 to 5.95693e-006
Heightened Def Con from 5.95714e-006 to 5.95726e-006
Heightened Def Con from 5.95727e-006 to 5.95727e-006
Heightened Def Con from 5.95727e-006 to 5.95727e-006
Heightened Def Con from 5.95727e-006 +to 5.95727e-006
Heightened Def Con from 5.95727e-006 +++to 5.95727e-006
Heightened Def Con from 5.95727e-006 +++to 5.95727e-006
Heightened Def Con from 5.95727e-006 +++++++++++++++++to 5.95727e-006
Heightened Def Con from 5.95727e-006 +++++++++++++++++++++to 5.95727e-006
Heightened Def Con from 5.95727e-006 +++++++++++++++++++++++++to 5.95727e-006
Heightened Def Con from 5.95727e-006 +++++++++++++++++++++++to 5.95727e-006
Heightened Def Con from 5.95727e-006 +++++++++++++++++++++++to 5.95727e-006
Heightened Def Con from 5.95727e-006 ++++++++++++++++++++++to 5.95727e-006
Heightened Def Con from 5.95727e-006 ++++++++++++++++++++to 5.95727e-006
Heightened Def Con from 5.95748e-006 to 5.95761e-006
Heightened Def Con from 5.95781e-006 to 5.95794e-006
Heightened Def Con from 5.95795e-006 to 5.95795e-006
Heightened Def Con from 5.95795e-006 +to 5.95795e-006
Heightened Def Con from 5.95795e-006 to 5.95795e-006
Heightened Def Con from 5.95795e-006 to 5.95795e-006
Heightened Def Con from 5.95815e-006 to 5.96227e-006
Heightened Def Con from 5.96272e-006 to 5.96272e-006
Heightened Def Con from 5.96272e-006 +++to 5.96272e-006
Heightened Def Con from 5.96272e-006 to 5.96272e-006
Heightened Def Con from 5.96272e-006 +++++++++++to 5.96272e-006
Heightened Def Con from 5.96272e-006 +++++++++++to 5.96272e-006
Heightened Def Con from 5.96272e-006 +++++++++++++++++to 5.96272e-006
Heightened Def Con from 5.96272e-006 +++++++to 5.96272e-006
Heightened Def Con from 5.96272e-006 +++++++++++to 5.96272e-006
Heightened Def Con from 5.96272e-006 to 5.96272e-006
Heightened Def Con from 5.963e-006 to 5.96612e-006
Heightened Def Con from 5.96627e-006 to 5.96631e-006
Heightened Def Con from 5.96679e-006 to 5.96679e-006
Heightened Def Con from 5.96679e-006 to 5.96679e-006
Heightened Def Con from 5.96679e-006 to 5.96679e-006
Heightened Def Con from 5.96764e-006 to 5.96777e-006
Heightened Def Con from 5.96779e-006 to 5.96779e-006
Heightened Def Con from 5.96779e-006 +to 5.96779e-006
Heightened Def Con from 5.96779e-006 ++++++++++++++++to 5.96779e-006
Heightened Def Con from 5.96779e-006 ++++++++++++++++++++++++++to 5.96779e-006
Heightened Def Con from 5.96779e-006 ++++++++++++++++++++++++to 5.96779e-006
Heightened Def Con from 5.96779e-006 to 5.96779e-006
Heightened Def Con from 5.96863e-006 to 5.96875e-006
Heightened Def Con from 5.96877e-006 +to 5.96877e-006
Heightened Def Con from 5.96877e-006 to 5.96877e-006
Heightened Def Con from 5.96877e-006 +++to 5.96877e-006
Heightened Def Con from 5.96877e-006 to 5.96877e-006
Heightened Def Con from 5.96877e-006 +++++++++++++++++++++++++++to 5.96877e-006
Heightened Def Con from 5.96877e-006 ++++++++++++++++++++++++++++to 5.96877e-006
Heightened Def Con from 5.96877e-006 +++++++++++++++++++++++++++to 5.96877e-006
Heightened Def Con from 5.96877e-006 ++++++++++++++++++++++++to 5.96877e-006
Heightened Def Con from 5.96877e-006 ++++++++++++++++++++++++++++to 5.96877e-006
Heightened Def Con from 5.96877e-006 ++++++++++++++++++++++++++++to 5.96877e-006
Heightened Def Con from 5.9696e-006 to 5.96973e-006
Heightened Def Con from 5.96974e-006 to 5.96974e-006
Heightened Def Con from 5.96974e-006 +++to 5.96974e-006
Heightened Def Con from 5.96974e-006 +to 5.96974e-006
Heightened Def Con from 5.96974e-006 to 5.96974e-006
Heightened Def Con from 5.96974e-006 +++++++++++++++++++++++++++to 5.96974e-006
Heightened Def Con from 5.96974e-006 ++++++++++++++++++++++++++to 5.96974e-006
Heightened Def Con from 5.96974e-006 +++++++++++++++++++++++++to 5.96974e-006
Heightened Def Con from 5.96974e-006 to 5.96974e-006
Heightened Def Con from 5.97056e-006 to 5.97069e-006
Heightened Def Con from 5.9707e-006 to 5.97071e-006
Heightened Def Con from 5.9715e-006 to 5.97163e-006
Heightened Def Con from 5.97164e-006 to 5.97164e-006
Heightened Def Con from 5.97164e-006 ++to 5.97164e-006
Heightened Def Con from 5.97164e-006 +++to 5.97164e-006
Heightened Def Con from 5.97164e-006 +++++++++++++++++++++++++to 5.97164e-006
Heightened Def Con from 5.97164e-006 +++++++++++++++++++++++++++to 5.97164e-006
Heightened Def Con from 5.97164e-006 to 5.97164e-006
Heightened Def Con from 5.97164e-006 +++++++++++++++++++++++++++to 5.97164e-006
Heightened Def Con from 5.97164e-006 ++++++++++++++++++++++++++to 5.97164e-006
Heightened Def Con from 5.97164e-006 ++++++++++++++++++++++++++to 5.97164e-006
Heightened Def Con from 5.97164e-006 ++++++++++++++++++++++++++to 5.97164e-006
Heightened Def Con from 5.97164e-006 +++++++++++++++++++++++++++to 5.97164e-006
Heightened Def Con from 5.97164e-006 +++++++++++++++++++++++++++++++++++++++++++++++++to 5.97165e-006
Heightened Def Con from 5.97165e-006 ++++++++++++++++++++++++to 5.97165e-006
Heightened Def Con from 5.97498e-006 to 5.976e-006
Heightened Def Con from 5.97613e-006 to 5.97613e-006
Heightened Def Con from 5.97701e-006 to 5.97715e-006
Heightened Def Con from 5.97768e-006 to 5.98268e-006
Heightened Def Con from 6.04169e-006 to 6.04182e-006
Heightened Def Con from 6.04183e-006 to 6.04183e-006
Heightened Def Con from 6.04183e-006 to 6.04183e-006
Heightened Def Con from 6.04183e-006 +to 6.04183e-006
Heightened Def Con from 6.04183e-006 +++to 6.04183e-006
Heightened Def Con from 6.04183e-006 to 6.04183e-006
Heightened Def Con from 6.04252e-006 to 6.04264e-006
Heightened Def Con from 6.04266e-006 to 6.04266e-006
Heightened Def Con from 6.04266e-006 +to 6.04266e-006
Heightened Def Con from 6.04266e-006 ++to 6.04266e-006
Heightened Def Con from 6.04266e-006 to 6.04266e-006
Heightened Def Con from 6.04335e-006 to 6.04347e-006
Heightened Def Con from 6.04349e-006 ++to 6.04349e-006
Heightened Def Con from 6.04349e-006 to 6.04349e-006
Heightened Def Con from 6.04418e-006 to 6.0443e-006
Heightened Def Con from 6.04432e-006 to 6.04432e-006
Heightened Def Con from 6.045e-006 to 6.04513e-006
Heightened Def Con from 6.04515e-006 to 6.04515e-006
Heightened Def Con from 6.04515e-006 ++to 6.04515e-006
Heightened Def Con from 6.04515e-006 to 6.04515e-006
Heightened Def Con from 6.04584e-006 to 6.04596e-006
Heightened Def Con from 6.04598e-006 to 6.04598e-006
Heightened Def Con from 6.04598e-006 ++++++++to 6.04598e-006
Heightened Def Con from 6.04598e-006 to 6.04598e-006
Heightened Def Con from 6.04667e-006 to 6.0468e-006
Heightened Def Con from 6.04681e-006 +to 6.04681e-006
Heightened Def Con from 6.04681e-006 +to 6.04681e-006
Heightened Def Con from 6.04681e-006 ++++++++++++++++++++to 6.04681e-006
Heightened Def Con from 6.0475e-006 to 6.04763e-006
Heightened Def Con from 6.04764e-006 to 6.04764e-006
Heightened Def Con from 6.04764e-006 +to 6.04764e-006
Heightened Def Con from 6.04764e-006 to 6.04764e-006
Heightened Def Con from 6.04834e-006 to 6.04846e-006
Heightened Def Con from 6.04848e-006 to 6.04848e-006
Heightened Def Con from 6.04917e-006 to 6.04929e-006
Heightened Def Con from 6.04931e-006 to 6.04931e-006
Heightened Def Con from 6.04931e-006 ++to 6.04931e-006
Heightened Def Con from 6.05e-006 to 6.05013e-006
Heightened Def Con from 6.05014e-006 ++++to 6.05014e-006
Heightened Def Con from 6.05014e-006 to 6.05014e-006
Heightened Def Con from 6.05014e-006 +++++++++++++++++++++++++to 6.05014e-006
Heightened Def Con from 6.05014e-006 to 6.05014e-006
Heightened Def Con from 6.05084e-006 to 6.05097e-006
Heightened Def Con from 6.05098e-006 +++++++++to 6.05098e-006
Heightened Def Con from 6.05098e-006 +++to 6.05098e-006
Heightened Def Con from 6.05098e-006 +++++to 6.05098e-006
Heightened Def Con from 6.05098e-006 ++++++++++++++++++++++to 6.05098e-006
Heightened Def Con from 6.05098e-006 ++++++++++++++++++++++++to 6.05098e-006
Heightened Def Con from 6.05098e-006 to 6.05098e-006
Heightened Def Con from 6.05168e-006 to 6.0518e-006
Heightened Def Con from 6.05182e-006 to 6.05182e-006
Heightened Def Con from 6.05182e-006 to 6.05182e-006
Heightened Def Con from 6.05182e-006 +to 6.05182e-006
Heightened Def Con from 6.05182e-006 ++++++++++++to 6.05182e-006
Heightened Def Con from 6.05182e-006 +to 6.05182e-006
Heightened Def Con from 6.05182e-006 ++++++++++++++++++++++++to 6.05182e-006
Heightened Def Con from 6.05182e-006 ++++++++++++++++++++++to 6.05182e-006
Heightened Def Con from 6.05182e-006 ++++++++++++++++++++++to 6.05182e-006
Heightened Def Con from 6.05182e-006 ++++++++++++++++++++++to 6.05182e-006
Heightened Def Con from 6.05182e-006 ++++++++++++++++++++++to 6.05182e-006
Heightened Def Con from 6.05182e-006 ++++++++++++++++++++++to 6.05182e-006
Heightened Def Con from 6.05182e-006 ++++++++++++++++++++++to 6.05182e-006
Heightened Def Con from 6.05182e-006 ++++++++++++++++++++++to 6.05182e-006
Heightened Def Con from 6.05182e-006 to 6.05182e-006
Heightened Def Con from 6.05251e-006 to 6.05264e-006
Heightened Def Con from 6.05265e-006 +++++++++++++++++++++++to 6.05265e-006
Heightened Def Con from 6.05265e-006 ++++++++++++++++++++++to 6.05265e-006
Heightened Def Con from 6.05265e-006 ++++++++++++++++++++++to 6.05265e-006
Heightened Def Con from 6.05265e-006 +++++++++++++++++++++++to 6.05265e-006
Heightened Def Con from 6.05265e-006 +++++++++++++++++++++to 6.05265e-006
Heightened Def Con from 6.05265e-006 to 6.05265e-006
Heightened Def Con from 6.05335e-006 to 6.05348e-006
Heightened Def Con from 6.05349e-006 to 6.05349e-006
Heightened Def Con from 6.05418e-006 to 6.05431e-006
Heightened Def Con from 6.05432e-006 to 6.05432e-006
Heightened Def Con from 6.05432e-006 +to 6.05432e-006
Heightened Def Con from 6.05432e-006 +to 6.05432e-006
Heightened Def Con from 6.05432e-006 to 6.05432e-006
Heightened Def Con from 6.05432e-006 +to 6.05432e-006
Heightened Def Con from 6.05432e-006 ++++++++++++++++to 6.05432e-006
Heightened Def Con from 6.05432e-006 to 6.05432e-006
Heightened Def Con from 6.05502e-006 to 6.05515e-006
Heightened Def Con from 6.05516e-006 to 6.05516e-006
Heightened Def Con from 6.05516e-006 ++to 6.05516e-006
Heightened Def Con from 6.05516e-006 +++++++++++++++++++++to 6.05516e-006
Heightened Def Con from 6.05516e-006 ++++++++++++++++++++++to 6.05516e-006
Heightened Def Con from 6.05516e-006 ++++++++++++++++++++to 6.05516e-006
Heightened Def Con from 6.05516e-006 +++++++++++++++++++++++to 6.05516e-006
Heightened Def Con from 6.05516e-006 +++++++++++++++++++++++to 6.05516e-006
Heightened Def Con from 6.05516e-006 ++++++++++++++++++++++++to 6.05516e-006
Heightened Def Con from 6.05516e-006 +++++++++++++++++++++to 6.05516e-006
Heightened Def Con from 6.05516e-006 +++++++++++++++++++++++to 6.05516e-006
Heightened Def Con from 6.05516e-006 +++++++++++++++++++++++++++++++++++++++++++++++++to 6.05516e-006
Heightened Def Con from 6.05516e-006 +++++++++++++++++++++to 6.05518e-006
Heightened Def Con from 6.05938e-006 to 6.06151e-006
Heightened Def Con from 6.06221e-006 to 6.06233e-006
Heightened Def Con from 6.06235e-006 +to 6.06235e-006
Heightened Def Con from 6.06235e-006 +to 6.06235e-006
Heightened Def Con from 6.06235e-006 ++to 6.06235e-006
Heightened Def Con from 6.06235e-006 ++++++to 6.06235e-006
Heightened Def Con from 6.06235e-006 ++++++++++++++++++++++++to 6.06235e-006
Heightened Def Con from 6.06235e-006 +++++++++++++++++++to 6.06235e-006
Heightened Def Con from 6.06235e-006 to 6.06235e-006
Heightened Def Con from 6.06235e-006 +++++++++++++++++++to 6.06235e-006
Heightened Def Con from 6.06235e-006 +++++++++++++++++++++++++++to 6.06235e-006
Heightened Def Con from 6.06377e-006 to 6.0639e-006
Heightened Def Con from 6.06391e-006 to 6.06391e-006
Heightened Def Con from 6.06391e-006 ++to 6.06391e-006
Heightened Def Con from 6.06391e-006 ++to 6.06391e-006
Heightened Def Con from 6.06391e-006 to 6.06391e-006
Heightened Def Con from 6.06531e-006 to 6.06543e-006
Heightened Def Con from 6.06682e-006 to 6.06694e-006
Heightened Def Con from 6.06696e-006 +to 6.06696e-006
Heightened Def Con from 6.06696e-006 +to 6.06696e-006
Heightened Def Con from 6.06696e-006 +++++++++++to 6.06696e-006
Heightened Def Con from 6.06696e-006 ++++++to 6.06696e-006
Heightened Def Con from 6.06696e-006 to 6.06696e-006
Heightened Def Con from 6.06696e-006 ++++++++++to 6.06696e-006
Heightened Def Con from 6.06696e-006 ++++to 6.06696e-006
Heightened Def Con from 6.06696e-006 ++++++++++++++++++to 6.06696e-006
Heightened Def Con from 6.06696e-006 ++++++++++++++++++to 6.06696e-006
Heightened Def Con from 6.06696e-006 +++++++++++++++++++++++to 6.06696e-006
Heightened Def Con from 6.06696e-006 +++++to 6.06696e-006
Heightened Def Con from 6.06696e-006 ++++++++++++++++to 6.06696e-006
Heightened Def Con from 6.06696e-006 ++++++++++++++++++++to 6.06696e-006
Heightened Def Con from 6.06696e-006 ++++++++++++++++++++to 6.06696e-006
Heightened Def Con from 6.06696e-006 +++++++++++++++++++++++++++++++++++++++++++++to 6.06696e-006
Heightened Def Con from 6.06696e-006 to 6.06897e-006
Heightened Def Con from 6.06907e-006 to 6.06921e-006
Heightened Def Con from 6.07016e-006 to 6.07028e-006
Heightened Def Con from 6.0703e-006 ++++to 6.0703e-006
Heightened Def Con from 6.0703e-006 to 6.0703e-006
Heightened Def Con from 6.0703e-006 +++++++to 6.0703e-006
Heightened Def Con from 6.0703e-006 ++to 6.0703e-006
Heightened Def Con from 6.0703e-006 +++to 6.0703e-006
Heightened Def Con from 6.0703e-006 ++++++++++++++++++++++++to 6.0703e-006
Heightened Def Con from 6.0703e-006 +to 6.0703e-006
Heightened Def Con from 6.0703e-006 ++++++++to 6.0703e-006
Heightened Def Con from 6.0703e-006 ++++++++++++++++++++++++to 6.0703e-006
Heightened Def Con from 6.0703e-006 ++to 6.0703e-006
Heightened Def Con from 6.0703e-006 ++++++++to 6.0703e-006
Heightened Def Con from 6.0703e-006 ++++++++++++++++++++++++to 6.0703e-006
Heightened Def Con from 6.0703e-006 ++++++++++++++++++++++++++++to 6.0703e-006
Heightened Def Con from 6.0703e-006 to 6.0708e-006
Heightened Def Con from 6.07174e-006 to 6.07187e-006
Heightened Def Con from 6.07326e-006 to 6.07339e-006
Heightened Def Con from 6.0734e-006 to 6.0734e-006
Heightened Def Con from 6.0734e-006 +to 6.0734e-006
Heightened Def Con from 6.0734e-006 +++++++++++++++++++++to 6.0734e-006
Heightened Def Con from 6.0734e-006 to 6.0734e-006
Heightened Def Con from 6.0734e-006 ++++++++++++to 6.0734e-006
Heightened Def Con from 6.0734e-006 +++++++++++++++++++++to 6.0734e-006
Heightened Def Con from 6.0734e-006 ++++to 6.0734e-006
Heightened Def Con from 6.0734e-006 to 6.0734e-006
Heightened Def Con from 6.07484e-006 to 6.07496e-006
Heightened Def Con from 6.07498e-006 to 6.07498e-006
Heightened Def Con from 6.07498e-006 ++to 6.07498e-006
Heightened Def Con from 6.07498e-006 +++++++++++++to 6.07498e-006
Heightened Def Con from 6.07498e-006 to 6.07498e-006
Heightened Def Con from 6.07641e-006 to 6.07654e-006
Heightened Def Con from 6.07656e-006 to 6.07656e-006
Heightened Def Con from 6.07656e-006 ++to 6.07656e-006
Heightened Def Con from 6.07656e-006 to 6.07656e-006
Heightened Def Con from 6.07656e-006 to 6.07656e-006
Heightened Def Con from 6.07656e-006 to 6.07656e-006
Heightened Def Con from 6.07799e-006 to 6.07812e-006
Heightened Def Con from 6.07813e-006 to 6.07813e-006
Heightened Def Con from 6.07813e-006 +to 6.07813e-006
Heightened Def Con from 6.07813e-006 +to 6.07813e-006
Heightened Def Con from 6.07813e-006 to 6.07813e-006
Heightened Def Con from 6.07813e-006 to 6.07813e-006
Heightened Def Con from 6.07813e-006 +++++++++++++++++++++to 6.07813e-006
Heightened Def Con from 6.07813e-006 +++++++++++++++++++++++to 6.07813e-006
Heightened Def Con from 6.07813e-006 +++++++++++++++++++++++++to 6.07813e-006
Heightened Def Con from 6.07813e-006 ++++++++++++++++++++to 6.07813e-006
Heightened Def Con from 6.07813e-006 ++++++++++++++++++to 6.07813e-006
Heightened Def Con from 6.07813e-006 ++++++to 6.07813e-006
Heightened Def Con from 6.07813e-006 ++++to 6.07813e-006
Heightened Def Con from 6.07813e-006 ++++++++++++++++++++++++to 6.07813e-006
Heightened Def Con from 6.07813e-006 +++++++++++++++++++++++++++++++++++++++++++++++to 6.07813e-006
Heightened Def Con from 6.07813e-006 +++++++++++++++++++++++++to 6.07813e-006
Heightened Def Con from 6.07813e-006 +++++++++++++++++++++++++++++++++++++++++++++++to 6.07814e-006
Heightened Def Con from 6.07814e-006 +++++++++++++++++++++++++++++++++++++++to 6.08814e-006
Heightened Def Con from 6.08814e-006 +++++++++++++++++++++++++++++to 6.08814e-006
Heightened Def Con from 6.08814e-006 ++++++++++++++++++++++++++++to 6.08814e-006
Heightened Def Con from 6.08814e-006 ++++++++++++++++++++++++++++to 6.08814e-006
Heightened Def Con from 6.08814e-006 ++++++++++++++++++++++++++++to 6.08814e-006
Heightened Def Con from 6.08814e-006 +++++++++++++++++++++++++++to 6.08817e-006
Heightened Def Con from 6.08817e-006 +++++++++++++++++++++++++to 6.08818e-006
Heightened Def Con from 6.08818e-006 to 6.08819e-006
Heightened Def Con from 6.08819e-006 to 6.08819e-006
Heightened Def Con from 6.08819e-006 +to 6.08819e-006
Heightened Def Con from 6.08819e-006 +++++++++++++++to 6.08819e-006
Heightened Def Con from 6.08819e-006 +++++++++++++++to 6.08819e-006
Heightened Def Con from 6.08819e-006 +++++++to 6.08819e-006
Heightened Def Con from 6.08819e-006 to 6.08819e-006
Heightened Def Con from 6.08835e-006 to 6.08849e-006
Heightened Def Con from 6.08852e-006 to 6.08852e-006
Heightened Def Con from 6.08852e-006 to 6.08852e-006
Heightened Def Con from 6.08856e-006 to 6.09044e-006
Heightened Def Con from 6.09061e-006 +to 6.09061e-006
Heightened Def Con from 6.09061e-006 to 6.09061e-006
Heightened Def Con from 6.09061e-006 ++++++++++++++++++++++++++++++++++++++++++++++to 6.09061e-006
Heightened Def Con from 6.09061e-006 +++++++++++++++++++++++to 6.09061e-006
Heightened Def Con from 6.09283e-006 to 6.10383e-006
Heightened Def Con from 6.1384e-006 to 6.1424e-006
Heightened Def Con from 6.35429e-006 to 6.35431e-006
Heightened Def Con from 6.35431e-006 ++++to 6.35431e-006
Heightened Def Con from 6.35431e-006 ++++to 6.35431e-006
Heightened Def Con from 6.35431e-006 ++++to 6.35431e-006
Heightened Def Con from 6.35431e-006 to 6.35431e-006
Heightened Def Con from 6.35431e-006 +to 6.35431e-006
Heightened Def Con from 6.35431e-006 to 6.35431e-006
Heightened Def Con from 6.35431e-006 to 6.35431e-006
Heightened Def Con from 6.35512e-006 to 6.35524e-006
Heightened Def Con from 6.35526e-006 +++++++++to 6.35526e-006
Heightened Def Con from 6.35526e-006 ++++++++++++++++++++++to 6.35526e-006
Heightened Def Con from 6.35526e-006 +++++++++++++++++++++++to 6.35526e-006
Heightened Def Con from 6.35526e-006 to 6.35526e-006
Heightened Def Con from 6.3561e-006 to 6.35623e-006
Heightened Def Con from 6.35624e-006 to 6.35624e-006
Heightened Def Con from 6.35624e-006 +to 6.35624e-006
Heightened Def Con from 6.35624e-006 ++++++to 6.35624e-006
Heightened Def Con from 6.35624e-006 ++++++++++++++++++++++to 6.35624e-006
Heightened Def Con from 6.35624e-006 +++to 6.35624e-006
Heightened Def Con from 6.35624e-006 +++++++to 6.35624e-006
Heightened Def Con from 6.35624e-006 +++++++++++to 6.35624e-006
Heightened Def Con from 6.35624e-006 ++++++to 6.35624e-006
Heightened Def Con from 6.35624e-006 ++++++++++++++++++++++++to 6.35624e-006
Heightened Def Con from 6.35624e-006 ++++++++++++++++++++++++to 6.35624e-006
Heightened Def Con from 6.35624e-006 +++++++++++++++++++++to 6.35624e-006
Heightened Def Con from 6.35624e-006 +++++++++++++++++++++++to 6.35624e-006
Heightened Def Con from 6.35624e-006 ++++++++++++++++++++++++++to 6.35624e-006
Heightened Def Con from 6.35624e-006 to 6.35624e-006
Heightened Def Con from 6.35709e-006 to 6.35722e-006
Heightened Def Con from 6.35808e-006 to 6.35821e-006
Heightened Def Con from 6.35822e-006 ++to 6.35822e-006
Heightened Def Con from 6.35822e-006 to 6.35822e-006
Heightened Def Con from 6.35822e-006 ++++to 6.35822e-006
Heightened Def Con from 6.35822e-006 +++to 6.35822e-006
Heightened Def Con from 6.35822e-006 +to 6.35822e-006
Heightened Def Con from 6.35822e-006 to 6.35822e-006
Heightened Def Con from 6.35822e-006 +++++++++++++++++++to 6.35822e-006
Heightened Def Con from 6.35822e-006 ++++++++++++++++++++to 6.35822e-006
Heightened Def Con from 6.35822e-006 ++++++++++to 6.35822e-006
Heightened Def Con from 6.35822e-006 ++++++++++++++++++++++to 6.35822e-006
Heightened Def Con from 6.35822e-006 +++++++++++to 6.35822e-006
Heightened Def Con from 6.35822e-006 ++++++to 6.35822e-006
Heightened Def Con from 6.35822e-006 ++++++++++++++++++++++++++++++++++++++++++++++++to 6.35822e-006
Heightened Def Con from 6.35822e-006 to 6.35824e-006
Heightened Def Con from 6.35825e-006 ++++++++++++++++++++++++++++++++++++++++++++++++to 6.35826e-006
Heightened Def Con from 6.35826e-006 +++++++++++++++++++++++++++++++++++++to 6.35951e-006
Heightened Def Con from 6.35951e-006 ++++++++++++++++++++++++++++to 6.35951e-006
Heightened Def Con from 6.35951e-006 ++++++++++++++++++++++++++++to 6.35951e-006
Heightened Def Con from 6.35951e-006 to 6.35951e-006
Heightened Def Con from 6.35951e-006 +++++++++++++++++++++++++++++++++++++++++to 6.35951e-006
Heightened Def Con from 6.35951e-006 to 6.35972e-006
Heightened Def Con from 6.36224e-006 to 6.36238e-006
Heightened Def Con from 6.36348e-006 to 6.36361e-006
Heightened Def Con from 6.36362e-006 to 6.36362e-006
Heightened Def Con from 6.36362e-006 to 6.36362e-006
Heightened Def Con from 6.36362e-006 to 6.36362e-006
Heightened Def Con from 6.3654e-006 to 6.36642e-006
Heightened Def Con from 6.36673e-006 to 6.36673e-006
Heightened Def Con from 6.36673e-006 to 6.36673e-006
Heightened Def Con from 6.36866e-006 to 6.37466e-006
Heightened Def Con from 6.39278e-006 ++++to 6.39278e-006
Heightened Def Con from 6.39278e-006 to 6.39278e-006
Heightened Def Con from 6.39406e-006 to 6.40006e-006
Heightened Def Con from 6.40435e-006 to 6.40435e-006
Heightened Def Con from 6.4057e-006 to 6.4127e-006
Heightened Def Con from 6.42309e-006 +to 6.42309e-006
Heightened Def Con from 6.42309e-006 to 6.42309e-006
Heightened Def Con from 6.42309e-006 +to 6.42309e-006
Heightened Def Con from 6.42309e-006 to 6.42309e-006
Heightened Def Con from 6.42309e-006 ++++++++++++++++++++++to 6.42309e-006
Heightened Def Con from 6.42309e-006 +++++++++++++++++++++to 6.42309e-006
Heightened Def Con from 6.42309e-006 ++++++++++++to 6.42309e-006
Heightened Def Con from 6.42309e-006 ++++++++++to 6.42309e-006
Heightened Def Con from 6.42309e-006 +++++++++++++++++++++++++++++++++++++++++++++++to 6.42309e-006
Heightened Def Con from 6.42309e-006 +++++++++++++++++++++++to 6.42434e-006
Heightened Def Con from 6.42455e-006 to 6.43055e-006
Heightened Def Con from 6.43527e-006 to 6.43527e-006
Heightened Def Con from 6.43654e-006 to 6.44254e-006
Heightened Def Con from 6.45111e-006 to 6.45811e-006
Heightened Def Con from 6.45968e-006 to 6.45968e-006
Heightened Def Con from 6.46121e-006 to 6.46421e-006
Heightened Def Con from 6.46422e-006 to 6.46672e-006
Heightened Def Con from 6.46729e-006 to 6.4703e-006
Heightened Def Con from 6.47033e-006 to 6.47134e-006
Heightened Def Con from 6.47149e-006 +++to 6.47149e-006
Heightened Def Con from 6.47149e-006 to 6.47149e-006
Heightened Def Con from 6.47149e-006 to 6.47149e-006
Heightened Def Con from 6.47304e-006 to 6.47617e-006
Heightened Def Con from 6.47636e-006 to 6.47738e-006
Heightened Def Con from 6.47754e-006 ++++++++++++++++++++++to 6.47754e-006
Heightened Def Con from 6.47754e-006 +++++++++++++++++++++++to 6.47754e-006
Heightened Def Con from 6.47908e-006 to 6.4801e-006
Heightened Def Con from 6.48179e-006 +++to 6.48179e-006
Heightened Def Con from 6.48179e-006 to 6.48179e-006
Heightened Def Con from 6.48179e-006 ++++++++++++++++to 6.48179e-006
Heightened Def Con from 6.48179e-006 ++++++++++to 6.48179e-006
Heightened Def Con from 6.48179e-006 ++++++++++++++to 6.48179e-006
Heightened Def Con from 6.48179e-006 +++++++++++++++++++++to 6.4828e-006
Heightened Def Con from 6.48297e-006 to 6.48297e-006
Heightened Def Con from 6.48475e-006 to 6.48475e-006
Heightened Def Con from 6.48475e-006 to 6.48475e-006
Heightened Def Con from 6.48475e-006 ++++++++to 6.48475e-006
Heightened Def Con from 6.48475e-006 +to 6.48475e-006
Heightened Def Con from 6.48475e-006 +++++to 6.48475e-006
Heightened Def Con from 6.48475e-006 to 6.48475e-006
Heightened Def Con from 6.48475e-006 +++to 6.48475e-006
Heightened Def Con from 6.48475e-006 ++++++++++++++++++to 6.48475e-006
Heightened Def Con from 6.48475e-006 +++++++++++to 6.48475e-006
Heightened Def Con from 6.48475e-006 +++++++++++++++++++++++to 6.48475e-006
Heightened Def Con from 6.48475e-006 to 6.48475e-006
Heightened Def Con from 6.48475e-006 to 6.48475e-006
Heightened Def Con from 6.48475e-006 ++++++to 6.48475e-006
Heightened Def Con from 6.48475e-006 +++++++++++++++++++++++++++++++++++++++++++++++to 6.48475e-006
Heightened Def Con from 6.48475e-006 ++++++++++++++++++++++to 6.48614e-006
Heightened Def Con from 6.48619e-006 to 6.48632e-006
Heightened Def Con from 6.48633e-006 ++to 6.48633e-006
Heightened Def Con from 6.48633e-006 ++++++++to 6.48633e-006
Heightened Def Con from 6.48633e-006 +++++++++++++++++++++++to 6.48633e-006
Heightened Def Con from 6.48633e-006 ++++++++++++++++++++++to 6.48633e-006
Heightened Def Con from 6.48633e-006 to 6.48633e-006
Heightened Def Con from 6.48633e-006 +++++++++++++++++++++++++++to 6.48633e-006
Heightened Def Con from 6.48737e-006 to 6.48752e-006
Heightened Def Con from 6.48822e-006 to 6.48834e-006
Heightened Def Con from 6.48836e-006 ++to 6.48836e-006
Heightened Def Con from 6.48836e-006 to 6.48836e-006
Heightened Def Con from 6.48951e-006 to 6.48963e-006
Heightened Def Con from 6.48965e-006 to 6.48965e-006
Heightened Def Con from 6.48965e-006 ++++++++to 6.48965e-006
Heightened Def Con from 6.48965e-006 ++++++++++++++++++++++++++to 6.48965e-006
Heightened Def Con from 6.48965e-006 ++++++++++++++++++++++++to 6.48965e-006
Heightened Def Con from 6.48965e-006 to 6.48965e-006
Heightened Def Con from 6.48965e-006 ++++++++++++++to 6.48965e-006
Heightened Def Con from 6.48965e-006 ++++++++++++++++++++++++to 6.48965e-006
Heightened Def Con from 6.48965e-006 +++++++++++++++++++++++++to 6.48965e-006
Heightened Def Con from 6.48965e-006 ++++++++++++++++++++to 6.48965e-006
Heightened Def Con from 6.48965e-006 +++++++++++++++++++++++++to 6.48965e-006
Heightened Def Con from 6.48965e-006 ++++++++++++++++++++++to 6.48965e-006
Heightened Def Con from 6.48965e-006 ++++++++++++++++++++++++++++++++++++++++++to 6.48965e-006
Heightened Def Con from 6.48965e-006 to 6.49015e-006
Heightened Def Con from 6.49085e-006 to 6.49098e-006
Heightened Def Con from 6.49099e-006 to 6.49099e-006
Heightened Def Con from 6.49219e-006 to 6.49232e-006
Heightened Def Con from 6.49234e-006 ++to 6.49234e-006
Heightened Def Con from 6.49234e-006 to 6.49234e-006
Heightened Def Con from 6.49234e-006 ++++++++++++++++++++++to 6.49234e-006
Heightened Def Con from 6.49234e-006 +++++to 6.49234e-006
Heightened Def Con from 6.49234e-006 +to 6.49234e-006
Heightened Def Con from 6.49234e-006 +++++++++++++++++++++++++to 6.49234e-006
Heightened Def Con from 6.49234e-006 to 6.49234e-006
Heightened Def Con from 6.49357e-006 to 6.4937e-006
Heightened Def Con from 6.49371e-006 +++++++++++to 6.49371e-006
Heightened Def Con from 6.49371e-006 +++to 6.49371e-006
Heightened Def Con from 6.49371e-006 to 6.49371e-006
Heightened Def Con from 6.49371e-006 to 6.49371e-006
Heightened Def Con from 6.49371e-006 ++to 6.49371e-006
Heightened Def Con from 6.49371e-006 +to 6.49371e-006
Heightened Def Con from 6.49371e-006 ++++++++++++++++++++to 6.49371e-006
Heightened Def Con from 6.49371e-006 +++++++++++++++++++++to 6.49371e-006
Heightened Def Con from 6.49371e-006 ++++++++++++++++++++++++++to 6.49371e-006
Heightened Def Con from 6.49371e-006 ++++++++++++++++++++++to 6.49371e-006
Heightened Def Con from 6.49371e-006 ++++++++++++to 6.49371e-006
Heightened Def Con from 6.49371e-006 ++++++++++to 6.49371e-006
Heightened Def Con from 6.49371e-006 ++++++++++++++++++++++to 6.49371e-006
Heightened Def Con from 6.49371e-006 +++++++++++++++++++++++++++++++++++++++++++++++++to 6.49371e-006
Heightened Def Con from 6.49371e-006 ++++++++++++++++++++++++++to 6.49371e-006
Heightened Def Con from 6.49371e-006 ++++++++++++++++++++++++++++++++++++++++++++++++to 6.49971e-006
Heightened Def Con from 6.49971e-006 ++++++++++++++++++++++++++++++to 6.49971e-006
Heightened Def Con from 6.49971e-006 +++++++++++++++++++++++++++++to 6.49972e-006
Heightened Def Con from 6.49972e-006 +++++++++++++++++++++++++++++to 6.49973e-006
Heightened Def Con from 6.49973e-006 ++++++++++++++++++++++++++++to 6.49993e-006
Heightened Def Con from 6.49993e-006 to 6.50006e-006
Heightened Def Con from 6.50891e-006 to 6.51003e-006
Heightened Def Con from 6.51052e-006 to 6.51052e-006
Heightened Def Con from 6.51052e-006 ++to 6.51052e-006
Heightened Def Con from 6.51052e-006 to 6.51052e-006
Heightened Def Con from 6.51052e-006 +to 6.51052e-006
Heightened Def Con from 6.51052e-006 to 6.51052e-006
Heightened Def Con from 6.51052e-006 +++to 6.51052e-006
Heightened Def Con from 6.51052e-006 ++++++++++++++++++++++++to 6.51052e-006
Heightened Def Con from 6.51052e-006 ++++++++++++++++++++++++to 6.51052e-006
Heightened Def Con from 6.51052e-006 +++++++++++++++++++++++++++++++++++++++++++to 6.51052e-006
Heightened Def Con from 6.51052e-006 to 6.5106e-006
Heightened Def Con from 6.51073e-006 to 6.51086e-006
Heightened Def Con from 6.51087e-006 ++to 6.51087e-006
Heightened Def Con from 6.51087e-006 +++to 6.51087e-006
Heightened Def Con from 6.51087e-006 +to 6.51087e-006
Heightened Def Con from 6.51087e-006 +++++++++++++++++++++++to 6.51087e-006
Heightened Def Con from 6.51087e-006 +++++++++++++++++++++++to 6.51087e-006
Heightened Def Con from 6.51087e-006 ++++++++++++++++++++to 6.51087e-006
Heightened Def Con from 6.51087e-006 ++++++++++++++++++++to 6.51087e-006
Heightened Def Con from 6.51087e-006 ++++++++++++++++++to 6.51087e-006
Heightened Def Con from 6.51087e-006 ++++++++++++++++++++++++++++++++++++++++++++++to 6.51087e-006
Heightened Def Con from 6.51087e-006 to 6.51099e-006
Heightened Def Con from 6.51102e-006 ++++to 6.51102e-006
Heightened Def Con from 6.51102e-006 ++to 6.51102e-006
Heightened Def Con from 6.51102e-006 ++++++++++++++++++++++++++++++++++++++++++++++++to 6.51102e-006
Heightened Def Con from 6.51102e-006 +++++++++++++++++++++++to 6.51102e-006
Heightened Def Con from 6.51102e-006 ++++++++++++++++++++++++++++++++++++++++++++++++to 6.51902e-006
Heightened Def Con from 6.51902e-006 +++++++++++++++++++++++++++++++to 6.51902e-006
Heightened Def Con from 6.51902e-006 ++++++++++++++++++++++++++++++to 6.51915e-006
Heightened Def Con from 6.51915e-006 +++++++++++++++++++++++++++++to 6.51929e-006
Heightened Def Con from 6.51929e-006 +++++++++++++++++++++++++++to 6.51946e-006
Heightened Def Con from 6.51946e-006 to 6.5197e-006
Heightened Def Con from 6.52829e-006 to 6.52841e-006
Heightened Def Con from 6.52843e-006 to 6.52843e-006
Heightened Def Con from 6.52843e-006 to 6.52843e-006
Heightened Def Con from 6.52843e-006 to 6.52843e-006
Heightened Def Con from 6.52843e-006 +to 6.52843e-006
Heightened Def Con from 6.52843e-006 +++++++++++to 6.52843e-006
Heightened Def Con from 6.52843e-006 ++++++++++++++++++++++to 6.52843e-006
Heightened Def Con from 6.52843e-006 ++++++++++++++++++++++++++++++++++++++++++++to 6.52843e-006
Heightened Def Con from 6.52843e-006 ++++++++++++++++++++++++++++++++++to 6.52844e-006
Heightened Def Con from 6.52871e-006 to 6.52884e-006
Heightened Def Con from 6.52885e-006 +to 6.52885e-006
Heightened Def Con from 6.52885e-006 to 6.52885e-006
Heightened Def Con from 6.52907e-006 to 6.5292e-006
Heightened Def Con from 6.5292e-006 +to 6.5292e-006
Heightened Def Con from 6.5292e-006 to 6.5292e-006
Heightened Def Con from 6.5292e-006 ++++++to 6.5292e-006
Heightened Def Con from 6.5292e-006 +++++++++++++++++++++++to 6.5292e-006
Heightened Def Con from 6.5292e-006 ++++++++++++++++++++++to 6.5292e-006
Heightened Def Con from 6.5292e-006 ++++++++++++++++++to 6.5292e-006
Heightened Def Con from 6.5292e-006 +++++++++++++++++++++++++++++++++++++++++to 6.5292e-006
Heightened Def Con from 6.52941e-006 to 6.53443e-006
Heightened Def Con from 6.53449e-006 to 6.53449e-006
Heightened Def Con from 6.53449e-006 to 6.53449e-006
Heightened Def Con from 6.53449e-006 to 6.53449e-006
Heightened Def Con from 6.53449e-006 +++++to 6.53449e-006
Heightened Def Con from 6.53449e-006 ++to 6.53449e-006
Heightened Def Con from 6.53449e-006 ++++++++++++++to 6.53449e-006
Heightened Def Con from 6.53449e-006 +++++++++++++++++++++++++to 6.53449e-006
Heightened Def Con from 6.53449e-006 +++++++++++++++++++++++++to 6.53449e-006
Heightened Def Con from 6.53449e-006 ++++++++++++++++++++++++++to 6.53449e-006
Heightened Def Con from 6.53449e-006 ++++++++++++++++++++++to 6.53449e-006
Heightened Def Con from 6.53449e-006 to 6.53449e-006
Heightened Def Con from 6.53449e-006 to 6.53453e-006
Heightened Def Con from 6.53469e-006 to 6.53682e-006
Heightened Def Con from 6.53748e-006 to 6.5376e-006
Heightened Def Con from 6.53761e-006 ++to 6.53761e-006
Heightened Def Con from 6.53761e-006 +to 6.53761e-006
Heightened Def Con from 6.53761e-006 +++++++++++++++++to 6.53761e-006
Heightened Def Con from 6.53761e-006 +++++++++++++++to 6.53761e-006
Heightened Def Con from 6.53761e-006 ++to 6.53761e-006
Heightened Def Con from 6.53761e-006 ++++++++++++++++++++++++++to 6.53761e-006
Heightened Def Con from 6.53761e-006 ++++++++++++++++++++++++to 6.53761e-006
Heightened Def Con from 6.53761e-006 to 6.53761e-006
Heightened Def Con from 6.53772e-006 to 6.53785e-006
Heightened Def Con from 6.53786e-006 to 6.53786e-006
Heightened Def Con from 6.53786e-006 to 6.53786e-006
Heightened Def Con from 6.53786e-006 to 6.53786e-006
Heightened Def Con from 6.53786e-006 to 6.53786e-006
Heightened Def Con from 6.53786e-006 ++++++to 6.53786e-006
Heightened Def Con from 6.53786e-006 to 6.53786e-006
Heightened Def Con from 6.5379e-006 to 6.53803e-006
Heightened Def Con from 6.53804e-006 ++++to 6.53804e-006
Heightened Def Con from 6.53804e-006 to 6.53804e-006
Heightened Def Con from 6.53804e-006 to 6.53804e-006
Heightened Def Con from 6.53804e-006 to 6.53804e-006
Heightened Def Con from 6.53804e-006 +++to 6.53804e-006
Heightened Def Con from 6.53804e-006 +to 6.53804e-006
Heightened Def Con from 6.53804e-006 to 6.53804e-006
Heightened Def Con from 6.53804e-006 +to 6.53804e-006
Heightened Def Con from 6.53804e-006 to 6.53804e-006
Heightened Def Con from 6.53804e-006 +++++++++++++++to 6.53804e-006
Heightened Def Con from 6.53804e-006 ++++++++++++++++++++++++++++to 6.53804e-006
Heightened Def Con from 6.53804e-006 ++++++++++++++++++++++++++++to 6.53804e-006
Heightened Def Con from 6.53804e-006 +++++++++++++++++++++++++to 6.53804e-006
Heightened Def Con from 6.53804e-006 ++++++++++++++++++++++++++++to 6.53804e-006
Heightened Def Con from 6.53804e-006 ++++++++++++++++++++++++++++to 6.53804e-006
Heightened Def Con from 6.53804e-006 ++++++++++++++++++++++to 6.53804e-006
Heightened Def Con from 6.53804e-006 to 6.53905e-006
Heightened Def Con from 6.53909e-006 to 6.53909e-006
Heightened Def Con from 6.53909e-006 ++++++++++++++++++++++++++++to 6.53909e-006
Heightened Def Con from 6.53909e-006 ++++++++++++++++++++++++++++to 6.53909e-006
Heightened Def Con from 6.53909e-006 +++++++++++++++to 6.53909e-006
Heightened Def Con from 6.53909e-006 +++++++++++++++++++++to 6.53909e-006
Heightened Def Con from 6.53909e-006 ++++++++++++++++++++++to 6.53909e-006
Heightened Def Con from 6.53931e-006 to 6.53944e-006
Heightened Def Con from 6.53945e-006 to 6.53945e-006
Heightened Def Con from 6.53975e-006 to 6.53987e-006
Heightened Def Con from 6.53988e-006 to 6.53988e-006
Heightened Def Con from 6.53988e-006 to 6.53989e-006
Heightened Def Con from 6.53994e-006 to 6.54007e-006
Heightened Def Con from 6.54009e-006 to 6.54009e-006
Heightened Def Con from 6.54022e-006 to 6.54124e-006
Heightened Def Con from 6.54127e-006 to 6.54127e-006
Heightened Def Con from 6.54127e-006 to 6.54127e-006
Heightened Def Con from 6.54127e-006 to 6.54127e-006
Heightened Def Con from 6.54127e-006 ++++++++++to 6.54127e-006
Heightened Def Con from 6.54127e-006 ++++to 6.54127e-006
Heightened Def Con from 6.54127e-006 to 6.54127e-006
Heightened Def Con from 6.5421e-006 to 6.5471e-006
Heightened Def Con from 6.59316e-006 ++++++++++++++to 6.59316e-006
Heightened Def Con from 6.59316e-006 to 6.59316e-006
Heightened Def Con from 6.59316e-006 to 6.59316e-006
Heightened Def Con from 6.59316e-006 to 6.59316e-006
Heightened Def Con from 6.59316e-006 ++++++++++++++to 6.59316e-006
Heightened Def Con from 6.59316e-006 to 6.59316e-006
Heightened Def Con from 6.59316e-006 to 6.59316e-006
Heightened Def Con from 6.59316e-006 ++++++++++to 6.59316e-006
Heightened Def Con from 6.59316e-006 ++++++to 6.59316e-006
Heightened Def Con from 6.59316e-006 ++++++++++++++to 6.59316e-006
Heightened Def Con from 6.59316e-006 +to 6.59316e-006
Heightened Def Con from 6.59316e-006 +++++++++++++to 6.59316e-006
Heightened Def Con from 6.59316e-006 ++++++++++++++to 6.59316e-006
Heightened Def Con from 6.59316e-006 +++++++++++++++to 6.59316e-006
Heightened Def Con from 6.59316e-006 ++++++++++++++to 6.59316e-006
Heightened Def Con from 6.59316e-006 ++++++++to 6.59316e-006
Heightened Def Con from 6.59316e-006 ++++++++++to 6.59316e-006
Heightened Def Con from 6.59316e-006 +++++++++++++++to 6.59316e-006
Heightened Def Con from 6.59316e-006 to 6.59316e-006
Heightened Def Con from 6.59316e-006 +++++++++++++++to 6.59316e-006
Heightened Def Con from 6.59316e-006 to 6.59316e-006
Heightened Def Con from 6.59316e-006 to 6.59316e-006
Heightened Def Con from 6.59316e-006 to 6.59316e-006
Heightened Def Con from 6.59316e-006 +to 6.59316e-006
Heightened Def Con from 6.59316e-006 +++++++to 6.59316e-006
Heightened Def Con from 6.59316e-006 ++to 6.59316e-006
Heightened Def Con from 6.59316e-006 +++++++++++++++to 6.59316e-006
Heightened Def Con from 6.59316e-006 to 6.59316e-006
Heightened Def Con from 6.59316e-006 +++++++++to 6.59316e-006
Heightened Def Con from 6.59316e-006 +++++++++++++++to 6.59316e-006
Heightened Def Con from 6.59316e-006 +++++++++++++++to 6.59316e-006
Heightened Def Con from 6.59316e-006 +++++++++++++++to 6.59316e-006
Heightened Def Con from 6.59316e-006 ++++++++++++++++to 6.59316e-006
Heightened Def Con from 6.59316e-006 to 6.59316e-006
Heightened Def Con from 6.59316e-006 to 6.59316e-006
Heightened Def Con from 6.59316e-006 ++++++++++++++++to 6.59316e-006
Heightened Def Con from 6.59316e-006 to 6.59316e-006
Heightened Def Con from 6.59316e-006 to 6.59316e-006
Heightened Def Con from 6.59316e-006 to 6.59316e-006
Heightened Def Con from 6.59316e-006 ++++++++++++++++to 6.59316e-006
Heightened Def Con from 6.59316e-006 ++++++++++++++to 6.59316e-006
Heightened Def Con from 6.59316e-006 +to 6.59316e-006
Heightened Def Con from 6.59316e-006 +++++++++++to 6.59316e-006
Heightened Def Con from 6.59316e-006 ++++++++++++++++to 6.59316e-006
Heightened Def Con from 6.59316e-006 ++++++++++++++++to 6.59316e-006
Heightened Def Con from 6.59316e-006 +++++++++++++++++to 6.59317e-006
Heightened Def Con from 6.59317e-006 ++to 6.59317e-006
Heightened Def Con from 6.59317e-006 +++++++++++++++++to 6.59317e-006
Heightened Def Con from 6.59317e-006 to 6.59317e-006
Heightened Def Con from 6.59317e-006 +++to 6.59317e-006
Heightened Def Con from 6.59317e-006 to 6.59317e-006
Heightened Def Con from 6.59317e-006 +++++++++++++++++to 6.59317e-006
Heightened Def Con from 6.59317e-006 +++++++++++++++++to 6.59317e-006
Heightened Def Con from 6.59317e-006 +++++++++++++++++to 6.59317e-006
Heightened Def Con from 6.59317e-006 +++++++++++++to 6.59317e-006
Heightened Def Con from 6.59317e-006 ++++++++++to 6.59317e-006
Heightened Def Con from 6.59317e-006 +++++++++++++++to 6.59317e-006
Heightened Def Con from 6.59317e-006 +++++++++++++++++to 6.59317e-006
Heightened Def Con from 6.59317e-006 +++++++++++++++++to 6.59317e-006
Heightened Def Con from 6.59317e-006 +++++++++++++++++to 6.59317e-006
Heightened Def Con from 6.59317e-006 +++++++++++++++++to 6.59317e-006
Heightened Def Con from 6.59317e-006 +++++++++++++++++to 6.59317e-006
Heightened Def Con from 6.59317e-006 +++++++++++++++++to 6.59317e-006
Heightened Def Con from 6.59317e-006 +++++++++++++++++to 6.59317e-006
Heightened Def Con from 6.59317e-006 +++++++++++++++++to 6.59317e-006
Heightened Def Con from 6.59317e-006 +++++++++++++++++to 6.59317e-006
Heightened Def Con from 6.59317e-006 +++++++++++++++++to 6.59317e-006
Heightened Def Con from 6.59317e-006 +++++++++++++++++to 6.59317e-006
Heightened Def Con from 6.59317e-006 +++++++++++++++++to 6.59317e-006
Heightened Def Con from 6.59317e-006 +++++++++++++++++to 6.59317e-006
Heightened Def Con from 6.59317e-006 +++++++++++++++++to 6.59317e-006
Heightened Def Con from 6.59317e-006 +++++++++++++++++to 6.59317e-006
Heightened Def Con from 6.59317e-006 +++++++++++++++++to 6.59317e-006
Heightened Def Con from 6.59317e-006 ++++++++++++++++++to 6.59317e-006
Heightened Def Con from 6.59317e-006 +++++++++++++++++to 6.59317e-006
Heightened Def Con from 6.59317e-006 ++++++++++++++++++to 6.59317e-006
Heightened Def Con from 6.59317e-006 +++++++++++to 6.59317e-006
Heightened Def Con from 6.59317e-006 ++++++++++++++++++to 6.59317e-006
Heightened Def Con from 6.59317e-006 to 6.59317e-006
Heightened Def Con from 6.59317e-006 to 6.59317e-006
Heightened Def Con from 6.59317e-006 to 6.59317e-006
Heightened Def Con from 6.59317e-006 ++++to 6.59317e-006
Heightened Def Con from 6.59317e-006 +++++++to 6.59317e-006
Heightened Def Con from 6.59317e-006 ++++++++++++++++++to 6.59318e-006
Heightened Def Con from 6.59318e-006 to 6.59318e-006
Heightened Def Con from 6.59318e-006 ++to 6.59318e-006
Heightened Def Con from 6.59318e-006 +++++++++++++++to 6.59318e-006
Heightened Def Con from 6.59318e-006 ++++to 6.59318e-006
Heightened Def Con from 6.59318e-006 ++++++++++++++++++to 6.59318e-006
Heightened Def Con from 6.59318e-006 +++++++++++++to 6.59318e-006
Heightened Def Con from 6.59318e-006 ++++++++++++++++++to 6.59318e-006
Heightened Def Con from 6.59318e-006 ++++to 6.59318e-006
Heightened Def Con from 6.59318e-006 to 6.59318e-006
Heightened Def Con from 6.59318e-006 ++++++++++++++++++to 6.59318e-006
Heightened Def Con from 6.59318e-006 to 6.59318e-006
Heightened Def Con from 6.59318e-006 +to 6.59318e-006
Heightened Def Con from 6.59318e-006 +++++++++to 6.59318e-006
Heightened Def Con from 6.59318e-006 +to 6.59318e-006
Heightened Def Con from 6.59318e-006 +++++to 6.59318e-006
Heightened Def Con from 6.59318e-006 ++++++++++++++++++to 6.59318e-006
Heightened Def Con from 6.59318e-006 +to 6.59318e-006
Heightened Def Con from 6.59318e-006 to 6.59318e-006
Heightened Def Con from 6.59318e-006 ++++to 6.59318e-006
Heightened Def Con from 6.59318e-006 ++++++++++++++++++to 6.59318e-006
Heightened Def Con from 6.59318e-006 ++++++++++++++++++to 6.59318e-006
Heightened Def Con from 6.59318e-006 ++++++++++++++++++to 6.59318e-006
Heightened Def Con from 6.59318e-006 ++++++++++++++++++to 6.59318e-006
Heightened Def Con from 6.59318e-006 ++++++++++++++++++to 6.59318e-006
Heightened Def Con from 6.59318e-006 ++++++++++++++++++to 6.59318e-006
Heightened Def Con from 6.59318e-006 +++++++++++++++++++to 6.59319e-006
Heightened Def Con from 6.59319e-006 +to 6.59319e-006
Heightened Def Con from 6.59319e-006 +++++++++++++++++++to 6.59319e-006
Heightened Def Con from 6.59319e-006 to 6.59319e-006
Heightened Def Con from 6.59319e-006 +++++++++++++++++++to 6.59319e-006
Heightened Def Con from 6.59319e-006 +to 6.59319e-006
Heightened Def Con from 6.59319e-006 to 6.59319e-006
Heightened Def Con from 6.59319e-006 +to 6.59319e-006
Heightened Def Con from 6.59319e-006 to 6.59319e-006
Heightened Def Con from 6.59319e-006 +++++++++++++++++++to 6.59319e-006
Heightened Def Con from 6.59319e-006 ++to 6.59319e-006
Heightened Def Con from 6.59319e-006 +++++++++++++++++++to 6.59319e-006
Heightened Def Con from 6.59319e-006 +++++++++++++++++++to 6.59319e-006
Heightened Def Con from 6.59319e-006 +++++++++++++++to 6.59319e-006
Heightened Def Con from 6.59319e-006 +to 6.59319e-006
Heightened Def Con from 6.59319e-006 +++++++++++++++++++to 6.59319e-006
Heightened Def Con from 6.59319e-006 +++++++++++++++++++to 6.59319e-006
Heightened Def Con from 6.59319e-006 +++++++++++++++++++to 6.59319e-006
Heightened Def Con from 6.59319e-006 +++++++++++++++++++to 6.59319e-006
Heightened Def Con from 6.59319e-006 +++++++++++++++++++to 6.59319e-006
Heightened Def Con from 6.59319e-006 ++++++++++++++++++++to 6.59321e-006
Heightened Def Con from 6.59321e-006 to 6.59321e-006
Heightened Def Con from 6.59321e-006 to 6.59321e-006
Heightened Def Con from 6.59321e-006 ++to 6.59321e-006
Heightened Def Con from 6.59321e-006 ++++++++++++++++++++to 6.59321e-006
Heightened Def Con from 6.59321e-006 ++++++++to 6.59321e-006
Heightened Def Con from 6.59321e-006 ++++++to 6.59322e-006
Heightened Def Con from 6.59322e-006 to 6.59322e-006
Heightened Def Con from 6.59322e-006 to 6.59322e-006
Heightened Def Con from 6.59328e-006 to 6.5934e-006
Heightened Def Con from 6.59342e-006 to 6.59342e-006
Heightened Def Con from 6.59342e-006 +++++++++++++++++++++to 6.59342e-006
Heightened Def Con from 6.59342e-006 to 6.59342e-006
Heightened Def Con from 6.59404e-006 to 6.59417e-006
Heightened Def Con from 6.59418e-006 ++++++++++++++++++++++to 6.59418e-006
Heightened Def Con from 6.59418e-006 +++++++++++++++++++++++to 6.59418e-006
Heightened Def Con from 6.59418e-006 +++++++++++++++++++++to 6.59418e-006
Heightened Def Con from 6.59418e-006 ++++++++++++++++++++++++++++++++++++++++++++++to 6.59418e-006
Heightened Def Con from 6.59418e-006 +++++++++++++++++++++++++++++to 6.59418e-006
Heightened Def Con from 6.59569e-006 to 6.59582e-006
Heightened Def Con from 6.59583e-006 to 6.59583e-006
Heightened Def Con from 6.59583e-006 +++++++++++++++++++++to 6.59583e-006
Heightened Def Con from 6.59583e-006 ++++++++++++++++++++to 6.59583e-006
Heightened Def Con from 6.59583e-006 +++++++++++++++++++++to 6.59583e-006
Heightened Def Con from 6.59583e-006 ++++++++++++to 6.59583e-006
Heightened Def Con from 6.59583e-006 ++++++++++++++++++++++++to 6.59583e-006
Heightened Def Con from 6.59583e-006 to 6.59583e-006
Heightened Def Con from 6.59647e-006 to 6.59659e-006
Heightened Def Con from 6.59661e-006 +to 6.59661e-006
Heightened Def Con from 6.59661e-006 +to 6.59661e-006
Heightened Def Con from 6.59661e-006 to 6.59661e-006
Heightened Def Con from 6.59661e-006 to 6.59661e-006
Heightened Def Con from 6.59661e-006 +++++++++++++++++++++to 6.59661e-006
Heightened Def Con from 6.59661e-006 +++++++++++++++++++++++to 6.59661e-006
Heightened Def Con from 6.59661e-006 ++++++++++++++++++++++to 6.59661e-006
Heightened Def Con from 6.59661e-006 ++++++++++++++++++++++to 6.59661e-006
Heightened Def Con from 6.59661e-006 ++++++++++++++++++++++++to 6.59661e-006
Heightened Def Con from 6.59661e-006 ++++++++++++++++++++++to 6.59661e-006
Heightened Def Con from 6.59661e-006 ++++++++++++++++++++++to 6.59661e-006
Heightened Def Con from 6.59661e-006 ++++++++++++++++++++++to 6.59661e-006
Heightened Def Con from 6.59661e-006 ++++++++++++++++++++++++++++++++++++++++++++++++to 6.59661e-006
Heightened Def Con from 6.59661e-006 ++++++++++++++++++++to 6.59662e-006
Heightened Def Con from 6.59726e-006 to 6.59739e-006
Heightened Def Con from 6.5974e-006 to 6.5974e-006
Heightened Def Con from 6.59802e-006 to 6.59814e-006
Heightened Def Con from 6.59816e-006 to 6.59816e-006
Heightened Def Con from 6.59816e-006 to 6.59816e-006
Heightened Def Con from 6.59816e-006 to 6.59816e-006
Heightened Def Con from 6.59877e-006 to 6.5989e-006
Heightened Def Con from 6.59891e-006 to 6.59891e-006
Heightened Def Con from 6.59952e-006 to 6.59965e-006
Heightened Def Con from 6.59966e-006 to 6.59966e-006
Heightened Def Con from 6.59966e-006 to 6.59966e-006
Heightened Def Con from 6.59966e-006 ++++++++++++++++++++++++to 6.59966e-006
Heightened Def Con from 6.59966e-006 +++++++++++++++++++++to 6.59966e-006
Heightened Def Con from 6.59966e-006 ++++++++++++++++++++++++to 6.59966e-006
Heightened Def Con from 6.59966e-006 ++++++++++++++++++++++to 6.59966e-006
Heightened Def Con from 6.59966e-006 +++++++++++++++++++++to 6.59966e-006
Heightened Def Con from 6.59966e-006 ++++++++++++++++++++++to 6.59966e-006
Heightened Def Con from 6.59966e-006 +++++++++++++++++++++++to 6.59966e-006
Heightened Def Con from 6.59966e-006 to 6.59966e-006
Heightened Def Con from 6.60028e-006 to 6.60041e-006
Heightened Def Con from 6.60042e-006 to 6.60042e-006
Heightened Def Con from 6.60042e-006 to 6.60042e-006
Heightened Def Con from 6.60042e-006 to 6.60042e-006
Heightened Def Con from 6.60042e-006 to 6.60042e-006
Heightened Def Con from 6.60042e-006 to 6.60042e-006
Heightened Def Con from 6.60042e-006 +++++++++++++++++++++to 6.60042e-006
Heightened Def Con from 6.60042e-006 ++++++++++++++++++++++to 6.60042e-006
Heightened Def Con from 6.60042e-006 ++++++++++++++++++++++++to 6.60042e-006
Heightened Def Con from 6.60042e-006 +++++++++++++++++++++to 6.60042e-006
Heightened Def Con from 6.60042e-006 +++++++++++++++++++to 6.60042e-006
Heightened Def Con from 6.60042e-006 to 6.60042e-006
Heightened Def Con from 6.60104e-006 to 6.60116e-006
Heightened Def Con from 6.60118e-006 to 6.60118e-006
Heightened Def Con from 6.60118e-006 +++to 6.60118e-006
Heightened Def Con from 6.60118e-006 to 6.60118e-006
Heightened Def Con from 6.60118e-006 ++to 6.60118e-006
Heightened Def Con from 6.60118e-006 ++++++++++++++++++++++to 6.60118e-006
Heightened Def Con from 6.60118e-006 +++++++++++++++++++++to 6.60118e-006
Heightened Def Con from 6.60118e-006 +++++++++++++++++++++to 6.60118e-006
Heightened Def Con from 6.60118e-006 ++++++++++++++++++++++++++to 6.60118e-006
Heightened Def Con from 6.60118e-006 +++++++++++++++++++++++to 6.60118e-006
Heightened Def Con from 6.60118e-006 ++++++++++++++++++++++++++++++++++++++++++++++++++to 6.60918e-006
Heightened Def Con from 6.60918e-006 +++++++++++++++++++++++++++++++to 6.60918e-006
Heightened Def Con from 6.60918e-006 ++++++++++++++++++++++++++++++to 6.60918e-006
Heightened Def Con from 6.60918e-006 +++++++++++++++++++++++++++to 6.6093e-006
Heightened Def Con from 6.6093e-006 to 6.60932e-006
Heightened Def Con from 6.61647e-006 to 6.61748e-006
Heightened Def Con from 6.61756e-006 to 6.61756e-006
Heightened Def Con from 6.61756e-006 +++++++++++++++++++++++++++++++++++++++++++++++to 6.61756e-006
Heightened Def Con from 6.61756e-006 +++++++++++++++++++++++++++++++++++++to 6.6176e-006
Heightened Def Con from 6.6176e-006 ++++++++++++++++++to 6.6176e-006
Heightened Def Con from 6.6176e-006 to 6.61774e-006
Heightened Def Con from 6.61799e-006 to 6.61911e-006
Heightened Def Con from 6.61928e-006 to 6.61928e-006
Heightened Def Con from 6.61928e-006 to 6.61928e-006
Heightened Def Con from 6.61928e-006 to 6.61928e-006
Heightened Def Con from 6.61928e-006 +++++++++++to 6.61928e-006
Heightened Def Con from 6.61928e-006 ++++++++++++++++++to 6.61928e-006
Heightened Def Con from 6.61928e-006 ++++++++++++++to 6.61928e-006
Heightened Def Con from 6.61928e-006 ++++++++++++++++to 6.61928e-006
Heightened Def Con from 6.61928e-006 ++++to 6.61928e-006
Heightened Def Con from 6.61928e-006 ++++++++++++++++to 6.61928e-006
Heightened Def Con from 6.61928e-006 ++++++++++++++++++++++++++++++++++++++++++++++to 6.61929e-006
Heightened Def Con from 6.61929e-006 ++++++++++++++++++++++++++++++++++++++to 6.62116e-006
Heightened Def Con from 6.62116e-006 +++++++++++++++++++++++++++++++++to 6.62116e-006
Heightened Def Con from 6.62116e-006 +++++++++++++++++++++++++++to 6.62116e-006
Heightened Def Con from 6.62116e-006 to 6.62129e-006
Heightened Def Con from 6.62129e-006 +++++++++++++++++++++++++++++++++++++to 6.62129e-006
Heightened Def Con from 6.62129e-006 to 6.62143e-006
Heightened Def Con from 6.62144e-006 to 6.62144e-006
Heightened Def Con from 6.62144e-006 to 6.62144e-006
Heightened Def Con from 6.62144e-006 to 6.62144e-006
Heightened Def Con from 6.62144e-006 to 6.62144e-006
Heightened Def Con from 6.62382e-006 to 6.62395e-006
Heightened Def Con from 6.62396e-006 to 6.62396e-006
Heightened Def Con from 6.62396e-006 to 6.62396e-006
Heightened Def Con from 6.62396e-006 ++++++to 6.62396e-006
Heightened Def Con from 6.62396e-006 ++++++++++++++++to 6.62396e-006
Heightened Def Con from 6.62396e-006 +++++++++++++++to 6.62396e-006
Heightened Def Con from 6.62396e-006 ++++++++++++++++++++to 6.62396e-006
Heightened Def Con from 6.62396e-006 ++++++++++++++++++++++++++++++++++++++++++++++to 6.62396e-006
Heightened Def Con from 6.62396e-006 ++++++++++++++++++++++++++++++++++++++to 6.62396e-006
Heightened Def Con from 6.62396e-006 to 6.62398e-006
Heightened Def Con from 6.62398e-006 to 6.62398e-006
Heightened Def Con from 6.62414e-006 to 6.62416e-006
Heightened Def Con from 6.62416e-006 to 6.62416e-006
Heightened Def Con from 6.62416e-006 to 6.62416e-006
Heightened Def Con from 6.62416e-006 to 6.62416e-006
Heightened Def Con from 6.62416e-006 to 6.62416e-006
Heightened Def Con from 6.62416e-006 ++to 6.62416e-006
Heightened Def Con from 6.62416e-006 to 6.62416e-006
Heightened Def Con from 6.62423e-006 to 6.62436e-006
Heightened Def Con from 6.62438e-006 to 6.62438e-006
Heightened Def Con from 6.62438e-006 to 6.62438e-006
Heightened Def Con from 6.62438e-006 to 6.62438e-006
Heightened Def Con from 6.62438e-006 to 6.62438e-006
Heightened Def Con from 6.62438e-006 ++++++++++++++to 6.62438e-006
Heightened Def Con from 6.62438e-006 +++++++++++++++++++++++++++++++++++++++++++++++to 6.62438e-006
Heightened Def Con from 6.62438e-006 +++++++++++++++++++++++++++++++++++++++to 6.62613e-006
Heightened Def Con from 6.62613e-006 ++++++++++++++++++++++++++++++++to 6.62614e-006
Heightened Def Con from 6.62614e-006 to 6.62627e-006
Heightened Def Con from 6.62641e-006 to 6.62741e-006
Heightened Def Con from 6.62745e-006 to 6.62745e-006
Heightened Def Con from 6.62745e-006 ++to 6.62745e-006
Heightened Def Con from 6.62745e-006 ++to 6.62745e-006
Heightened Def Con from 6.62745e-006 ++++++to 6.62745e-006
Heightened Def Con from 6.62745e-006 +++++++++++++++to 6.62745e-006
Heightened Def Con from 6.62745e-006 ++++to 6.62745e-006
Heightened Def Con from 6.62745e-006 ++++to 6.62745e-006
Heightened Def Con from 6.62745e-006 ++++++++++++++++++++++++++++++++++++++++++++++to 6.62745e-006
Heightened Def Con from 6.62745e-006 +++++++++++++++++++++++++++++++++++++++to 6.62932e-006
Heightened Def Con from 6.62932e-006 ++++++++++++++++++++++++++++++to 6.62932e-006
Heightened Def Con from 6.62932e-006 +++++++++++++++++++++++++++to 6.62932e-006
Heightened Def Con from 6.62932e-006 ++++++++++++++++++++++++++to 6.62932e-006
Heightened Def Con from 6.62932e-006 ++++++++++++++++++++++++++to 6.62932e-006
Heightened Def Con from 6.62932e-006 ++++++++++++++++++++++++++to 6.62932e-006
Heightened Def Con from 6.62932e-006 ++++++++++++++++++++++++++to 6.62932e-006
Heightened Def Con from 6.62932e-006 ++++++++++++++++++++++++++to 6.62932e-006
Heightened Def Con from 6.62932e-006 ++++++++++++++++++++++++++to 6.62932e-006
Heightened Def Con from 6.62932e-006 ++++++++++++++++++++++++++++++++++++++++++++++++++Fatal Error: Analysis:  Time step too small; time = 6.62932e-006, timestep = 1.25e-019: trouble with 1n4148-instance d3

