Circuit: * D:\Cloud\Google Drive\DSE\Tone control\tone_control.asc

Direct Newton iteration failed to find .op point.  (Use ".option noopiter" to skip.)
Starting Gmin stepping
Gmin = 10
vernier = 0.5
vernier = 0.25
vernier = 0.125
Gmin = 5.5165
vernier = 0.0625
vernier = 0.03125
vernier = 0.015625
vernier = 0.0078125
Gmin = 5.48432
vernier = 0.00390625
vernier = 0.00195313
vernier = 0.000976563
vernier = 0.000488281
Gmin = 0
Gmin stepping succeeded in finding the operating point.

N-Period=all
Fourier components of V(out)
DC component:-0.00281545

Harmonic	Frequency	 Fourier 	Normalized	 Phase  	Normalized
 Number 	  [Hz]   	Component	 Component	[degree]	Phase [deg]
    1   	1.000e+03	9.550e-01	1.000e+00	   27.41°	    0.00°
    2   	2.000e+03	5.256e-05	5.503e-05	   94.74°	   67.33°
    3   	3.000e+03	1.267e-03	1.327e-03	 -177.39°	 -204.81°
    4   	4.000e+03	3.695e-05	3.869e-05	   82.08°	   54.67°
    5   	5.000e+03	1.100e-03	1.151e-03	    8.28°	  -19.13°
    6   	6.000e+03	4.132e-05	4.327e-05	   68.72°	   41.30°
    7   	7.000e+03	8.186e-04	8.572e-04	 -172.75°	 -200.16°
    8   	8.000e+03	2.774e-05	2.905e-05	   65.95°	   38.54°
    9   	9.000e+03	5.989e-04	6.271e-04	   15.81°	  -11.60°
   10   	1.000e+04	2.202e-05	2.305e-05	   54.54°	   27.12°
   11   	1.100e+04	3.440e-04	3.602e-04	 -159.13°	 -186.55°
   12   	1.200e+04	1.613e-05	1.689e-05	   56.92°	   29.51°
   13   	1.300e+04	2.113e-04	2.212e-04	   39.80°	   12.39°
   14   	1.400e+04	9.842e-06	1.031e-05	   50.37°	   22.96°
   15   	1.500e+04	1.046e-04	1.095e-04	 -108.29°	 -135.70°
   16   	1.600e+04	6.414e-06	6.716e-06	   56.42°	   29.01°
   17   	1.700e+04	9.313e-05	9.752e-05	  105.28°	   77.87°
   18   	1.800e+04	5.920e-06	6.199e-06	   61.49°	   34.08°
   19   	1.900e+04	8.707e-05	9.117e-05	  -46.74°	  -74.15°
   20   	2.000e+04	1.752e-06	1.835e-06	   62.36°	   34.95°
   21   	2.100e+04	9.097e-05	9.526e-05	  140.30°	  112.89°
   22   	2.200e+04	4.760e-06	4.984e-06	   79.06°	   51.65°
   23   	2.300e+04	9.268e-05	9.705e-05	  -31.18°	  -58.59°
   24   	2.400e+04	1.226e-06	1.284e-06	  147.08°	  119.67°
   25   	2.500e+04	1.045e-04	1.094e-04	  147.90°	  120.49°
   26   	2.600e+04	8.065e-06	8.445e-06	   72.13°	   44.71°
   27   	2.700e+04	1.088e-04	1.140e-04	  -27.79°	  -55.21°
   28   	2.800e+04	9.636e-06	1.009e-05	 -164.86°	 -192.27°
   29   	2.900e+04	1.181e-04	1.236e-04	  150.10°	  122.69°
   30   	3.000e+04	2.829e-05	2.962e-05	   49.81°	   22.40°
Total Harmonic Distortion: 0.211929%(0.245396%)



Date: Sat Jul 13 17:00:03 2019
Total elapsed time: 0.530 seconds.

tnom = 27
temp = 27
method = modified trap
totiter = 3865
traniter = 2420
tranpoints = 1211
accept = 1121
rejected = 90
matrix size = 39
fillins = 48
solver = Alternate
Matrix Compiler1: 4.77 KB object code size  5.9/2.9/[2.0]
Matrix Compiler2: 4.55 KB object code size  2.2/2.6/[2.0]

